test_data/networks/Texas7k_20210804.m
% Case saved by PowerWorld Simulator, version 22, build date March 17, 2021
% Case Information Header = 4 lines
% This is a synthetic electric grid designed by researchers at Texas A&M University, created for use in the ARPA-E PERFORM 
% program
% Reference: A. B. Birchfield, T. Xu, K. M. Gegner, K. S. Shetye, and T. J. Overbye, "Grid structural characteristics as validation 
% criteria for synthetic networks," IEEE Transactions on Power Systems, vol. 32, no. 4, pp. 3258-3265, Jul. 2017.
function mpc = Texas7k_20210804
mpc.version = '2';
mpc.baseMVA =  100.00;

%% bus data 
mpc.bus = [
110001	1	0.22	0.08	0.00	0.00	7	1.0370926	-4.242394	138.00	1	1.100	0.900	27.46	0.01	0	0
110002	1	0.00	0.00	0.00	0.00	7	1.0370926	-4.242394	13.80	1	1.100	0.900	27.46	0.01	0	0
110003	1	0.00	0.00	0.00	0.00	7	1.0370926	-4.242394	13.80	1	1.100	0.900	27.46	0.01	0	0
110004	1	0.00	0.00	0.00	0.00	7	1.0370926	-4.242394	1.00	1	1.100	0.900	27.46	0.01	0	0
110005	1	79.70	38.66	0.00	0.00	7	1.0218551	-11.384533	138.00	1	1.100	0.900	27.46	0.01	0	0
110006	1	0.00	0.00	0.00	0.00	7	1.0218551	-11.384533	13.80	1	1.100	0.900	27.46	0.01	0	0
110007	1	0.00	0.00	0.00	0.00	7	1.0218551	-11.384533	13.80	1	1.100	0.900	27.46	0.01	0	0
110008	1	0.00	0.00	0.00	0.00	7	1.0218551	-11.384533	1.00	1	1.100	0.900	27.46	0.01	0	0
110009	1	5.90	2.03	0.00	0.00	7	1.0286010	-3.558826	138.00	1	1.100	0.900	27.51	0.01	0	0
110010	1	0.00	0.00	0.00	0.00	7	1.0286010	-3.558826	13.80	1	1.100	0.900	27.51	0.01	0	0
110011	1	0.00	0.00	0.00	0.00	7	1.0286010	-3.558826	13.80	1	1.100	0.900	27.51	0.01	0	0
110012	1	0.00	0.00	0.00	0.00	7	1.0286010	-3.558826	1.00	1	1.100	0.900	27.51	0.01	0	0
110013	1	15.30	3.54	0.00	0.00	7	1.0115570	-12.681401	138.00	1	1.100	0.900	27.44	0.01	0	0
110014	1	0.00	0.00	0.00	0.00	7	1.0115570	-12.681401	13.80	1	1.100	0.900	27.44	0.01	0	0
110015	1	0.00	0.00	0.00	0.00	7	1.0115570	-12.681401	13.80	1	1.100	0.900	27.44	0.01	0	0
110016	1	0.00	0.00	0.00	0.00	7	1.0115570	-12.681401	1.00	1	1.100	0.900	27.44	0.01	0	0
110017	1	11.00	2.71	0.00	0.00	7	1.0264433	-16.738404	138.00	1	1.100	0.900	27.44	0.01	0	0
110018	1	0.00	0.00	0.00	0.00	7	1.0264433	-16.738404	13.80	1	1.100	0.900	27.44	0.01	0	0
110019	1	0.00	0.00	0.00	0.00	7	1.0264433	-16.738404	13.80	1	1.100	0.900	27.44	0.01	0	0
110020	1	0.00	0.00	0.00	0.00	7	1.0264433	-16.738404	1.00	1	1.100	0.900	27.44	0.01	0	0
110021	1	8.30	1.88	0.00	0.00	7	1.0251749	-6.828781	138.00	1	1.100	0.900	27.46	0.01	0	0
110022	1	0.00	0.00	0.00	0.00	7	1.0251749	-6.828781	22.00	1	1.100	0.900	27.46	0.01	0	0
110023	1	0.00	0.00	0.00	0.00	7	1.0251749	-6.828781	22.00	1	1.100	0.900	27.46	0.01	0	0
110024	1	0.00	0.00	0.00	0.00	7	1.0251749	-6.828781	1.00	1	1.100	0.900	27.46	0.01	0	0
110025	1	7.30	2.11	0.00	0.00	7	1.0260746	-6.831657	138.00	1	1.100	0.900	27.46	0.01	0	0
110026	1	0.00	0.00	0.00	0.00	7	1.0260746	-6.831657	13.80	1	1.100	0.900	27.46	0.01	0	0
110027	1	0.00	0.00	0.00	0.00	7	1.0260746	-6.831657	13.80	1	1.100	0.900	27.46	0.01	0	0
110028	1	0.00	0.00	0.00	0.00	7	1.0260746	-6.831657	1.00	1	1.100	0.900	27.46	0.01	0	0
110029	1	7.70	2.03	0.00	0.00	7	1.0279168	-8.722837	138.00	1	1.100	0.900	27.44	0.00	0	0
110030	1	0.00	0.00	0.00	0.00	7	1.0279168	-8.722837	13.80	1	1.100	0.900	27.44	0.00	0	0
110031	1	0.00	0.00	0.00	0.00	7	1.0279168	-8.722837	13.80	1	1.100	0.900	27.44	0.00	0	0
110032	1	0.00	0.00	0.00	0.00	7	1.0279168	-8.722837	1.00	1	1.100	0.900	27.44	0.00	0	0
110033	1	7.50	1.80	0.00	0.00	7	1.0164845	-10.439684	138.00	1	1.100	0.900	27.62	0.01	0	0
110034	1	0.00	0.00	0.00	0.00	7	1.0164845	-10.439684	13.80	1	1.100	0.900	27.62	0.01	0	0
110035	1	0.00	0.00	0.00	0.00	7	1.0164845	-10.439684	13.80	1	1.100	0.900	27.62	0.01	0	0
110036	1	0.00	0.00	0.00	0.00	7	1.0164845	-10.439684	1.00	1	1.100	0.900	27.62	0.01	0	0
110037	1	4.25	0.68	0.00	0.00	7	1.0324650	-7.927104	138.00	1	1.100	0.900	27.45	0.02	0	0
110038	1	0.00	0.00	0.00	0.00	7	1.0324650	-7.927104	13.80	1	1.100	0.900	27.45	0.02	0	0
110039	1	0.00	0.00	0.00	0.00	7	1.0324650	-7.927104	13.80	1	1.100	0.900	27.45	0.02	0	0
110040	1	0.00	0.00	0.00	0.00	7	1.0324650	-7.927104	1.00	1	1.100	0.900	27.45	0.02	0	0
110041	1	2.56	0.53	0.00	0.00	7	1.0306011	-5.898392	138.00	1	1.100	0.900	27.46	0.01	0	0
110042	1	0.00	0.00	0.00	0.00	7	1.0306011	-5.898392	24.00	1	1.100	0.900	27.46	0.01	0	0
110043	1	0.00	0.00	0.00	0.00	7	1.0306011	-5.898392	24.00	1	1.100	0.900	27.46	0.01	0	0
110044	1	0.00	0.00	0.00	0.00	7	1.0306011	-5.898392	1.00	1	1.100	0.900	27.46	0.01	0	0
110045	1	1.73	0.53	0.00	0.00	7	1.0287298	-8.189099	138.00	1	1.100	0.900	27.45	0.02	0	0
110046	1	0.00	0.00	0.00	0.00	7	1.0287298	-8.189099	13.80	1	1.100	0.900	27.45	0.02	0	0
110047	1	0.00	0.00	0.00	0.00	7	1.0287298	-8.189099	13.80	1	1.100	0.900	27.45	0.02	0	0
110048	1	0.00	0.00	0.00	0.00	7	1.0287298	-8.189099	1.00	1	1.100	0.900	27.45	0.02	0	0
110049	1	3.09	0.30	0.00	0.00	7	1.0246793	-5.885151	138.00	1	1.100	0.900	27.46	0.01	0	0
110050	1	0.00	0.00	0.00	0.00	7	1.0246793	-5.885151	18.00	1	1.100	0.900	27.46	0.01	0	0
110051	1	0.00	0.00	0.00	0.00	7	1.0246793	-5.885151	18.00	1	1.100	0.900	27.46	0.01	0	0
110052	1	0.00	0.00	0.00	0.00	7	1.0246793	-5.885151	1.00	1	1.100	0.900	27.46	0.01	0	0
110053	1	4.25	0.68	0.00	0.00	7	1.0261359	-6.415464	138.00	1	1.100	0.900	27.46	0.01	0	0
110054	1	0.00	0.00	0.00	0.00	7	1.0261359	-6.415464	13.80	1	1.100	0.900	27.46	0.01	0	0
110055	1	0.00	0.00	0.00	0.00	7	1.0261359	-6.415464	13.80	1	1.100	0.900	27.46	0.01	0	0
110056	1	0.00	0.00	0.00	0.00	7	1.0261359	-6.415464	1.00	1	1.100	0.900	27.46	0.01	0	0
110057	1	0.61	0.21	0.00	0.00	7	1.0273869	-7.223056	138.00	1	1.100	0.900	27.46	0.01	0	0
110058	1	0.00	0.00	0.00	0.00	7	1.0273869	-7.223056	24.00	1	1.100	0.900	27.46	0.01	0	0
110059	1	0.00	0.00	0.00	0.00	7	1.0273869	-7.223056	24.00	1	1.100	0.900	27.46	0.01	0	0
110060	1	0.00	0.00	0.00	0.00	7	1.0273869	-7.223056	1.00	1	1.100	0.900	27.46	0.01	0	0
110061	1	1.58	0.38	0.00	0.00	7	1.0277130	-6.530545	138.00	1	1.100	0.900	27.46	0.01	0	0
110062	1	0.00	0.00	0.00	0.00	7	1.0277130	-6.530545	18.00	1	1.100	0.900	27.46	0.01	0	0
110063	1	0.00	0.00	0.00	0.00	7	1.0277130	-6.530545	18.00	1	1.100	0.900	27.46	0.01	0	0
110064	1	0.00	0.00	0.00	0.00	7	1.0277130	-6.530545	1.00	1	1.100	0.900	27.46	0.01	0	0
110065	1	3.24	1.05	0.00	0.00	7	1.0230903	-12.108720	138.00	1	1.100	0.900	27.46	0.01	0	0
110066	1	0.00	0.00	0.00	0.00	7	1.0230903	-12.108720	24.00	1	1.100	0.900	27.46	0.01	0	0
110067	1	0.00	0.00	0.00	0.00	7	1.0230903	-12.108720	24.00	1	1.100	0.900	27.46	0.01	0	0
110068	1	0.00	0.00	0.00	0.00	7	1.0230903	-12.108720	1.00	1	1.100	0.900	27.46	0.01	0	0
110069	1	10.40	2.26	0.00	0.00	7	1.0218060	-9.693303	138.00	1	1.100	0.900	27.48	0.01	0	0
110070	1	0.00	0.00	0.00	0.00	7	1.0218060	-9.693303	13.80	1	1.100	0.900	27.48	0.01	0	0
110071	1	0.00	0.00	0.00	0.00	7	1.0218060	-9.693303	13.80	1	1.100	0.900	27.48	0.01	0	0
110072	1	0.00	0.00	0.00	0.00	7	1.0218060	-9.693303	1.00	1	1.100	0.900	27.48	0.01	0	0
110073	1	5.70	1.13	0.00	0.00	7	1.0255971	-7.171018	138.00	1	1.100	0.900	27.46	0.01	0	0
110074	1	0.00	0.00	0.00	0.00	7	1.0255971	-7.171018	13.80	1	1.100	0.900	27.46	0.01	0	0
110075	1	0.00	0.00	0.00	0.00	7	1.0255971	-7.171018	13.80	1	1.100	0.900	27.46	0.01	0	0
110076	1	0.00	0.00	0.00	0.00	7	1.0255971	-7.171018	1.00	1	1.100	0.900	27.46	0.01	0	0
110077	1	2.41	0.45	0.00	0.00	7	1.0217643	-8.017345	138.00	1	1.100	0.900	27.46	0.01	0	0
110078	1	0.00	0.00	0.00	0.00	7	1.0217643	-8.017345	18.00	1	1.100	0.900	27.46	0.01	0	0
110079	1	0.00	0.00	0.00	0.00	7	1.0217643	-8.017345	18.00	1	1.100	0.900	27.46	0.01	0	0
110080	1	0.00	0.00	0.00	0.00	7	1.0217643	-8.017345	1.00	1	1.100	0.900	27.46	0.01	0	0
110081	1	4.70	0.22	0.00	0.00	7	1.0146134	-4.139481	138.00	1	1.100	0.900	27.48	0.01	0	0
110082	1	0.00	0.00	0.00	0.00	7	1.0146134	-4.139481	24.00	1	1.100	0.900	27.48	0.01	0	0
110083	1	0.00	0.00	0.00	0.00	7	1.0146134	-4.139481	24.00	1	1.100	0.900	27.48	0.01	0	0
110084	1	0.00	0.00	0.00	0.00	7	1.0146134	-4.139481	1.00	1	1.100	0.900	27.48	0.01	0	0
110085	1	4.07	1.05	0.00	0.00	7	1.0283858	-9.319997	138.00	1	1.100	0.900	27.53	0.01	0	0
110086	1	0.00	0.00	0.00	0.00	7	1.0283858	-9.319997	18.00	1	1.100	0.900	27.53	0.01	0	0
110087	1	0.00	0.00	0.00	0.00	7	1.0283858	-9.319997	18.00	1	1.100	0.900	27.53	0.01	0	0
110088	1	0.00	0.00	0.00	0.00	7	1.0283858	-9.319997	1.00	1	1.100	0.900	27.53	0.01	0	0
110089	1	3.89	0.38	0.00	0.00	7	1.0239356	-2.364095	138.00	1	1.100	0.900	27.49	0.01	0	0
110090	1	0.00	0.00	0.00	0.00	7	1.0239356	-2.364095	18.00	1	1.100	0.900	27.49	0.01	0	0
110091	1	0.00	0.00	0.00	0.00	7	1.0239356	-2.364095	18.00	1	1.100	0.900	27.49	0.01	0	0
110092	1	0.00	0.00	0.00	0.00	7	1.0239356	-2.364095	1.00	1	1.100	0.900	27.49	0.01	0	0
110093	1	0.58	0.14	0.00	0.00	7	1.0095350	-3.536299	138.00	1	1.100	0.900	27.48	0.01	0	0
110094	1	0.00	0.00	0.00	0.00	7	0.9650575	-6.973774	13.80	1	1.100	0.900	27.48	0.01	0	0
110095	1	0.00	0.00	0.00	0.00	7	0.9650575	-6.973774	13.80	1	1.100	0.900	27.48	0.01	0	0
110096	1	115.00	75.20	0.00	0.00	7	0.9650575	-6.973774	1.00	1	1.100	0.900	27.48	0.01	0	0
110097	1	1.95	0.45	0.00	0.00	7	1.0181300	-4.531549	138.00	1	1.100	0.900	27.48	0.01	0	0
110098	1	0.00	0.00	0.00	0.00	7	1.0181300	-4.531549	13.80	1	1.100	0.900	27.48	0.01	0	0
110099	1	0.00	0.00	0.00	0.00	7	1.0181300	-4.531549	13.80	1	1.100	0.900	27.48	0.01	0	0
110100	1	0.00	0.00	0.00	0.00	7	1.0181300	-4.531549	1.00	1	1.100	0.900	27.48	0.01	0	0
110101	1	0.99	0.30	0.00	26.60	7	1.0337231	-1.639254	138.00	1	1.100	0.900	27.50	0.01	0	0
110102	1	0.00	0.00	0.00	0.00	7	1.0337231	-1.639254	13.80	1	1.100	0.900	27.50	0.01	0	0
110103	1	0.00	0.00	0.00	0.00	7	1.0337231	-1.639254	13.80	1	1.100	0.900	27.50	0.01	0	0
110104	1	0.00	0.00	0.00	0.00	7	1.0337231	-1.639254	1.00	1	1.100	0.900	27.50	0.01	0	0
110105	1	4.80	0.30	0.00	0.00	7	1.0279726	-3.325632	138.00	1	1.100	0.900	27.51	0.01	0	0
110106	1	0.00	0.00	0.00	0.00	7	1.0279726	-3.325632	18.00	1	1.100	0.900	27.51	0.01	0	0
110107	1	0.00	0.00	0.00	0.00	7	1.0279726	-3.325632	18.00	1	1.100	0.900	27.51	0.01	0	0
110108	1	0.00	0.00	0.00	0.00	7	1.0279726	-3.325632	1.00	1	1.100	0.900	27.51	0.01	0	0
110109	1	0.09	0.01	0.00	36.90	7	1.0356752	-10.632944	138.00	1	1.100	0.900	27.55	0.01	0	0
110110	1	0.00	0.00	0.00	0.00	7	1.0356752	-10.632944	13.80	1	1.100	0.900	27.55	0.01	0	0
110111	1	0.00	0.00	0.00	0.00	7	1.0356752	-10.632944	13.80	1	1.100	0.900	27.55	0.01	0	0
110112	1	0.00	0.00	0.00	0.00	7	1.0356752	-10.632944	1.00	1	1.100	0.900	27.55	0.01	0	0
110113	1	0.66	0.22	0.00	0.00	7	1.0361981	-3.692650	138.00	1	1.100	0.900	27.46	0.01	0	0
110114	1	0.00	0.00	0.00	0.00	7	1.0361981	-3.692650	18.00	1	1.100	0.900	27.46	0.01	0	0
110115	1	0.00	0.00	0.00	0.00	7	1.0361981	-3.692650	18.00	1	1.100	0.900	27.46	0.01	0	0
110116	1	0.00	0.00	0.00	0.00	7	1.0361981	-3.692650	1.00	1	1.100	0.900	27.46	0.01	0	0
110117	1	4.70	0.75	0.00	0.00	7	1.0137923	-4.654491	138.00	1	1.100	0.900	27.49	0.01	0	0
110118	1	0.63	0.22	0.00	0.00	7	1.0281398	-8.976583	138.00	1	1.100	0.900	27.45	0.02	0	0
110119	1	1.95	0.68	0.00	0.00	7	1.0163975	-8.704420	138.00	1	1.100	0.900	27.54	0.01	0	0
110120	1	2.18	0.60	0.00	0.00	7	1.0247547	-5.868602	138.00	1	1.100	0.900	27.48	0.01	0	0
110121	1	0.49	0.16	0.00	0.00	7	1.0221353	-6.308827	138.00	1	1.100	0.900	27.54	0.01	0	0
110122	1	0.92	0.30	0.00	0.00	7	1.0242146	-0.746418	138.00	1	1.100	0.900	27.47	0.01	0	0
110123	1	111.14	79.15	0.00	0.00	7	1.0061513	-13.423177	138.00	1	1.100	0.900	27.44	0.01	0	0
110124	1	0.46	0.09	0.00	0.00	7	1.0378097	-7.943878	138.00	1	1.100	0.900	27.45	0.02	0	0
110125	1	26.80	4.33	0.00	0.00	7	1.0225243	-9.856426	138.00	1	1.100	0.900	27.47	0.01	0	0
110126	1	0.00	0.00	0.00	76.84	7	1.0352994	-2.444048	345.00	1	1.100	0.900	27.46	0.00	0	0
110127	1	222.50	81.80	0.00	0.00	7	1.0269539	-5.369169	138.00	1	1.100	0.900	27.48	0.01	0	0
110128	1	41.40	6.70	0.00	0.00	7	1.0244504	-7.196909	138.00	1	1.100	0.900	27.46	0.01	0	0
110129	1	37.70	8.26	0.00	0.00	7	1.0304784	-19.011627	138.00	1	1.100	0.900	27.44	0.01	0	0
110130	1	10.30	1.13	0.00	0.00	7	1.0227884	-10.747621	138.00	1	1.100	0.900	27.45	0.02	0	0
110131	1	15.50	2.56	0.00	0.00	7	1.0352043	-16.164100	138.00	1	1.100	0.900	27.43	0.01	0	0
110132	1	100.50	9.37	0.00	0.00	7	1.0208398	-11.418891	138.00	1	1.100	0.900	27.44	0.01	0	0
110133	1	6.30	1.95	0.00	0.00	7	1.0242185	-4.916247	138.00	1	1.100	0.900	27.46	0.01	0	0
110134	1	4.60	0.60	0.00	0.00	7	1.0248284	-7.077261	138.00	1	1.100	0.900	27.46	0.01	0	0
110135	1	21.80	6.70	0.00	0.00	7	1.0199411	-7.775494	138.00	1	1.100	0.900	27.51	0.01	0	0
110136	1	9.50	3.09	0.00	0.00	7	1.0246454	-1.200824	138.00	1	1.100	0.900	27.49	0.01	0	0
110137	1	14.20	2.34	0.00	0.00	7	1.0288302	-16.894875	138.00	1	1.100	0.900	27.44	0.01	0	0
110138	1	14.90	5.30	0.00	0.00	7	1.0190875	-7.207088	138.00	1	1.100	0.900	27.50	0.01	0	0
110139	1	0.48	0.08	0.00	0.00	7	1.0355376	-3.234422	138.00	1	1.100	0.900	27.46	0.01	0	0
110140	1	9.40	1.35	0.00	0.00	7	1.0296379	-17.492167	138.00	1	1.100	0.900	27.44	0.01	0	0
110141	1	18.10	4.97	0.00	0.00	7	1.0342354	-17.613456	138.00	1	1.100	0.900	27.43	0.01	0	0
110142	1	21.46	16.50	0.00	0.00	7	1.0235715	-18.774772	138.00	1	1.100	0.900	27.44	0.01	0	0
110143	1	6.30	0.90	0.00	0.00	7	1.0339228	-17.572352	138.00	1	1.100	0.900	27.42	0.01	0	0
110144	1	68.94	33.90	0.00	100.80	7	1.0361035	-18.465273	138.00	1	1.100	0.900	27.44	0.01	0	0
110145	1	1.88	0.38	0.00	0.00	7	1.0183737	-14.335278	138.00	1	1.100	0.900	27.46	0.02	0	0
110146	1	0.96	0.22	0.00	0.00	7	1.0240690	-14.106964	138.00	1	1.100	0.900	27.45	0.02	0	0
110147	1	6.50	0.83	0.00	0.00	7	1.0263652	-19.336737	138.00	1	1.100	0.900	27.44	0.01	0	0
110148	1	2.86	0.22	0.00	0.00	7	1.0273558	-17.322596	138.00	1	1.100	0.900	27.44	0.02	0	0
110149	1	9.80	3.54	0.00	0.00	7	1.0321019	-17.595789	138.00	1	1.100	0.900	27.44	0.01	0	0
110150	1	5.20	1.58	0.00	0.00	7	1.0307262	-18.853149	138.00	1	1.100	0.900	27.47	-0.00	0	0
110151	1	6.40	2.03	0.00	0.00	7	1.0211007	-11.130863	138.00	1	1.100	0.900	27.45	0.02	0	0
110152	1	4.07	0.53	0.00	0.00	7	1.0283193	-17.111376	138.00	1	1.100	0.900	27.44	0.01	0	0
110153	1	5.40	1.95	0.00	0.00	7	1.0265381	-19.650760	138.00	1	1.100	0.900	27.47	0.00	0	0
110154	1	5.70	1.73	0.00	0.00	7	1.0326501	-12.465369	138.00	1	1.100	0.900	27.49	-0.03	0	0
110155	1	4.90	1.73	0.00	36.60	7	1.0307626	-13.454996	138.00	1	1.100	0.900	27.49	-0.03	0	0
110156	1	4.60	0.75	0.00	0.00	7	1.0304511	-16.752469	138.00	1	1.100	0.900	27.43	0.01	0	0
110157	1	6.30	0.68	0.00	0.00	7	1.0237512	-15.875959	138.00	1	1.100	0.900	27.44	0.02	0	0
110158	1	2.86	0.75	0.00	0.00	7	1.0235006	-20.967789	138.00	1	1.100	0.900	27.44	0.01	0	0
110159	1	2.79	0.98	0.00	0.00	7	1.0350268	-16.715546	138.00	1	1.100	0.900	27.43	0.01	0	0
110160	1	0.00	0.00	0.00	45.83	7	1.0386225	-11.576647	345.00	1	1.100	0.900	27.41	0.01	0	0
110161	1	11.14	6.62	0.00	0.00	7	1.0385311	-14.697859	138.00	1	1.100	0.900	27.42	0.01	0	0
110162	1	0.00	0.00	0.00	0.00	7	1.0238628	-24.819294	138.00	1	1.100	0.900	27.59	-0.00	0	0
110163	1	42.10	12.60	0.00	0.00	7	1.0189009	-27.264507	69.00	1	1.100	0.900	27.57	-0.00	0	0
110164	1	30.20	11.50	0.00	0.00	7	1.0095404	-27.873217	69.00	1	1.100	0.900	27.54	-0.00	0	0
110165	1	0.00	0.00	0.00	0.00	7	1.0134259	-24.083319	138.00	1	1.100	0.900	27.53	-0.00	0	0
110166	1	37.90	5.70	0.00	0.00	7	1.0190849	-27.313140	69.00	1	1.100	0.900	27.55	-0.00	0	0
110167	1	25.70	3.24	0.00	0.00	7	1.0162719	-27.996859	69.00	1	1.100	0.900	27.56	-0.00	0	0
110168	1	26.40	5.60	0.00	0.00	7	1.0070288	-28.481245	69.00	1	1.100	0.900	27.58	-0.00	0	0
110169	1	0.00	0.00	0.00	0.00	7	1.0198031	-25.935223	138.00	1	1.100	0.900	27.58	-0.00	0	0
110170	1	40.20	11.00	0.00	0.00	7	1.0255017	-27.964901	69.00	1	1.100	0.900	27.56	-0.00	0	0
110171	1	4.90	1.58	0.00	0.00	7	1.0154656	-27.708950	69.00	1	1.100	0.900	27.55	-0.00	0	0
110172	1	0.00	0.00	0.00	0.00	7	1.0047350	-25.755245	138.00	1	1.100	0.900	27.53	-0.00	0	0
110173	1	54.70	11.60	0.00	0.00	7	1.0073240	-27.824013	69.00	1	1.100	0.900	27.54	-0.00	0	0
110174	1	0.00	0.00	0.00	0.00	7	1.0198586	-25.573047	138.00	1	1.100	0.900	27.59	-0.00	0	0
110175	1	43.10	11.70	0.00	0.00	7	1.0045898	-28.231907	69.00	1	1.100	0.900	27.57	-0.00	0	0
110176	1	0.00	0.00	0.00	0.00	7	1.0095317	-25.039593	138.00	1	1.100	0.900	27.53	-0.00	0	0
110177	1	76.90	18.75	0.00	0.00	7	1.0120652	-27.357591	69.00	1	1.100	0.900	27.55	-0.00	0	0
110178	1	33.30	10.30	0.00	140.20	7	1.0289120	-28.161710	69.00	1	1.100	0.900	27.56	-0.00	0	0
110179	1	23.40	7.10	0.00	0.00	7	1.0118046	-28.080469	69.00	1	1.100	0.900	27.56	-0.00	0	0
110180	1	10.00	2.18	0.00	0.00	7	1.0212320	-25.487166	69.00	1	1.100	0.900	27.49	-0.00	0	0
110181	1	17.20	10.58	0.00	0.00	7	1.0210098	-25.027415	69.00	1	1.100	0.900	27.47	0.00	0	0
110182	1	6.40	1.95	0.00	0.00	7	1.0183715	-25.676378	69.00	1	1.100	0.900	27.48	0.00	0	0
110183	1	9.20	3.31	0.00	0.00	7	1.0236602	-25.460249	69.00	1	1.100	0.900	27.48	0.00	0	0
110184	1	5.30	1.28	0.00	0.00	7	1.0219001	-25.457192	69.00	1	1.100	0.900	27.48	0.00	0	0
110185	1	3.89	1.13	0.00	0.00	7	1.0292835	-24.287306	69.00	1	1.100	0.900	27.47	0.01	0	0
110186	1	5.30	0.83	0.00	0.00	7	1.0283577	-24.628186	69.00	1	1.100	0.900	27.46	0.01	0	0
110187	1	16.90	7.94	0.00	28.60	7	1.0237630	-25.437645	69.00	1	1.100	0.900	27.49	-0.00	0	0
110188	1	0.00	0.00	0.00	0.00	7	1.0260315	-21.478678	138.00	1	1.100	0.900	27.42	0.01	0	0
110189	1	7.90	1.20	0.00	0.00	7	1.0337614	-24.606566	69.00	1	1.100	0.900	27.45	0.01	0	0
110190	1	0.00	0.00	0.00	0.00	7	1.0274858	-22.137851	18.00	1	1.100	0.900	27.42	0.01	0	0
110191	1	0.00	0.00	0.00	0.00	7	1.0274858	-22.137851	1.00	1	1.100	0.900	27.42	0.01	0	0
110192	1	6.40	1.58	0.00	0.00	7	1.0216758	-25.412298	69.00	1	1.100	0.900	27.49	-0.00	0	0
110193	1	5.70	1.43	0.00	0.00	7	1.0198251	-25.046270	69.00	1	1.100	0.900	27.48	0.00	0	0
110194	1	3.61	0.15	0.00	93.30	7	1.0270579	-25.501707	69.00	1	1.100	0.900	27.48	0.00	0	0
110195	1	4.80	1.50	0.00	0.00	7	1.0323061	-25.426055	69.00	1	1.100	0.900	27.48	0.00	0	0
110196	1	2.41	0.53	0.00	0.00	7	1.0253178	-25.435054	69.00	1	1.100	0.900	27.48	0.00	0	0
110197	1	8.00	2.71	0.00	0.00	7	1.0210061	-24.948770	69.00	1	1.100	0.900	27.48	0.00	0	0
110198	1	16.10	8.28	0.00	0.00	7	1.0179648	-25.223755	69.00	1	1.100	0.900	27.48	-0.00	0	0
110199	1	4.80	1.50	0.00	0.00	7	1.0296429	-24.712413	69.00	1	1.100	0.900	27.46	0.01	0	0
110200	1	7.30	2.11	0.00	0.00	7	1.0207218	-25.387166	69.00	1	1.100	0.900	27.48	0.00	0	0
...
];

%% generator data 
mpc.gen = [
111180	643.52	1.54	379.71	-250.07	1.0385	895.20	1	746.00	87.52	0.00	0.00	0.00	0.00	0.00	0.00	0	0	0	0	746.0000	0	0	0	0
111181	630.21	1.54	381.24	-231.35	1.0373	898.80	1	749.00	303.73	0.00	0.00	0.00	0.00	0.00	0.00	0	0	0	0	749.0000	0	0	0	0
111183	46.58	21.81	27.49	-15.80	1.0400	64.80	1	54.00	15.73	0.00	0.00	0.00	0.00	0.00	0.00	0	0	0	0	54.0000	0	0	0	0
111184	23.42	27.49	27.49	-18.36	1.0400	64.80	1	54.00	6.30	0.00	0.00	0.00	0.00	0.00	0.00	0	0	0	0	54.0000	0	0	0	0
111185	46.58	22.62	27.49	-16.92	1.0400	64.80	1	54.00	23.18	0.00	0.00	0.00	0.00	0.00	0.00	0	0	0	0	54.0000	0	0	0	0
111186	43.13	21.28	25.45	-14.50	1.0400	60.00	1	50.00	23.19	0.00	0.00	0.00	0.00	0.00	0.00	0	0	0	0	50.0000	0	0	0	0
111187	55.21	28.68	32.58	-17.09	1.0400	76.80	1	64.00	21.89	0.00	0.00	0.00	0.00	0.00	0.00	0	0	0	0	64.0000	0	0	0	0
111188	43.40	17.20	27.49	-18.67	1.0400	64.80	1	54.00	26.28	0.00	0.00	0.00	0.00	0.00	0.00	0	0	0	0	54.0000	0	0	0	0
111190	60.57	5.90	52.94	-32.25	1.0400	124.80	1	104.00	27.60	0.00	0.00	0.00	0.00	0.00	0.00	0	0	0	0	104.0000	0	0	0	0
111191	81.41	8.33	52.94	-33.75	1.0400	124.80	1	104.00	48.44	0.00	0.00	0.00	0.00	0.00	0.00	0	0	0	0	104.0000	0	0	0	0
111192	49.17	10.12	29.01	-16.93	1.0400	68.40	1	57.00	20.52	0.00	0.00	0.00	0.00	0.00	0.00	0	0	0	0	57.0000	0	0	0	0
111193	32.72	6.75	29.01	-15.98	1.0400	68.40	1	57.00	14.65	0.00	0.00	0.00	0.00	0.00	0.00	0	0	0	0	57.0000	0	0	0	0
111194	49.17	8.94	29.01	-16.85	1.0400	68.40	1	57.00	28.41	0.00	0.00	0.00	0.00	0.00	0.00	0	0	0	0	57.0000	0	0	0	0
111195	49.17	5.73	29.01	-16.91	1.0400	68.40	1	57.00	24.09	0.00	0.00	0.00	0.00	0.00	0.00	0	0	0	0	57.0000	0	0	0	0
111196	49.17	7.51	29.01	-15.26	1.0400	68.40	1	57.00	14.15	0.00	0.00	0.00	0.00	0.00	0.00	0	0	0	0	57.0000	0	0	0	0
111197	49.17	5.05	29.01	-18.09	1.0400	68.40	1	57.00	13.05	0.00	0.00	0.00	0.00	0.00	0.00	0	0	0	0	57.0000	0	0	0	0
111198	49.17	5.02	29.01	-17.45	1.0400	68.40	1	57.00	13.03	0.00	0.00	0.00	0.00	0.00	0.00	0	0	0	0	57.0000	0	0	0	0
111199	43.14	4.83	29.01	-18.57	1.0400	68.40	1	57.00	25.07	0.00	0.00	0.00	0.00	0.00	0.00	0	0	0	0	57.0000	0	0	0	0
111200	44.26	7.35	29.52	-15.64	1.0400	69.60	1	58.00	25.87	0.00	0.00	0.00	0.00	0.00	0.00	0	0	0	0	58.0000	0	0	0	0
111201	50.03	4.64	29.52	-14.74	1.0400	69.60	1	58.00	25.90	0.00	0.00	0.00	0.00	0.00	0.00	0	0	0	0	58.0000	0	0	0	0
111202	50.03	5.57	29.52	-16.54	1.0400	69.60	1	58.00	10.82	0.00	0.00	0.00	0.00	0.00	0.00	0	0	0	0	58.0000	0	0	0	0
111203	50.03	8.90	29.52	-15.65	1.0400	69.60	1	58.00	8.97	0.00	0.00	0.00	0.00	0.00	0.00	0	0	0	0	58.0000	0	0	0	0
111204	36.08	7.07	29.52	-16.45	1.0400	69.60	1	58.00	17.69	0.00	0.00	0.00	0.00	0.00	0.00	0	0	0	0	58.0000	0	0	0	0
111205	45.14	7.16	29.52	-19.79	1.0400	69.60	1	58.00	26.75	0.00	0.00	0.00	0.00	0.00	0.00	0	0	0	0	58.0000	0	0	0	0
111206	0.00	0.00	6.62	-3.80	1.0400	15.60	0	13.00	3.03	0.00	0.00	0.00	0.00	0.00	0.00	0	0	0	0	13.0000	0	0	0	0
111208	572.78	3.33	309.42	-167.63	1.0385	796.80	1	664.00	149.20	0.00	0.00	0.00	0.00	0.00	0.00	0	0	0	0	664.0000	0	0	0	0
111209	571.92	3.33	308.96	-223.78	1.0385	795.60	1	663.00	76.51	0.00	0.00	0.00	0.00	0.00	0.00	0	0	0	0	663.0000	0	0	0	0
111210	0.00	0.00	284.26	-206.12	1.0400	732.00	0	610.00	224.35	0.00	0.00	0.00	0.00	0.00	0.00	0	0	0	0	610.0000	0	0	0	0
111211	0.00	0.00	268.88	-194.27	1.0400	692.40	0	577.00	183.07	0.00	0.00	0.00	0.00	0.00	0.00	0	0	0	0	577.0000	0	0	0	0
111212	0.00	0.00	6.62	-3.76	1.0400	15.60	0	13.00	1.49	0.00	0.00	0.00	0.00	0.00	0.00	0	0	0	0	13.0000	0	0	0	0
111212	476.17	3.33	280.97	-182.79	1.0380	662.40	1	552.00	165.98	0.00	0.00	0.00	0.00	0.00	0.00	0	0	0	0	552.0000	0	0	0	0
111213	235.50	3.33	138.96	-70.38	1.0403	327.60	1	273.00	34.50	0.00	0.00	0.00	0.00	0.00	0.00	0	0	0	0	273.0000	0	0	0	0
111214	145.78	0.45	86.02	-58.46	1.0400	202.80	1	169.00	44.20	0.00	0.00	0.00	0.00	0.00	0.00	0	0	0	0	169.0000	0	0	0	0
111215	145.78	3.33	86.02	-49.07	1.0408	202.80	1	169.00	29.81	0.00	0.00	0.00	0.00	0.00	0.00	0	0	0	0	169.0000	0	0	0	0
111217	1104.16	65.30	471.04	-365.47	1.0420	1536.00	1	1280.00	201.18	0.00	0.00	0.00	0.00	0.00	0.00	0	0	0	0	1280.0000	0	0	0	0
111218	1104.16	65.30	471.04	-382.86	1.0413	1536.00	1	1280.00	178.29	0.00	0.00	0.00	0.00	0.00	0.00	0	0	0	0	1280.0000	0	0	0	0
111220	60.57	13.10	41.23	-21.32	1.0400	97.20	1	81.00	34.89	0.00	0.00	0.00	0.00	0.00	0.00	0	0	0	0	81.0000	0	0	0	0
111221	69.87	14.04	41.23	-21.95	1.0400	97.20	1	81.00	13.80	0.00	0.00	0.00	0.00	0.00	0.00	0	0	0	0	81.0000	0	0	0	0
111223	0.00	0.00	15.27	-10.32	1.0400	36.00	0	30.00	3.97	0.00	0.00	0.00	0.00	0.00	0.00	0	0	0	0	30.0000	0	0	0	0
111231	64.70	20.26	38.17	-25.11	1.0400	90.00	1	75.00	20.03	0.00	0.00	0.00	0.00	0.00	0.00	0	0	0	0	75.0000	0	0	0	0
111232	31.27	19.91	38.17	-25.04	1.0400	90.00	1	75.00	7.50	0.00	0.00	0.00	0.00	0.00	0.00	0	0	0	0	75.0000	0	0	0	0
111233	64.70	13.21	38.17	-22.40	1.0400	90.00	1	75.00	27.46	0.00	0.00	0.00	0.00	0.00	0.00	0	0	0	0	75.0000	0	0	0	0
111234	43.08	18.53	38.17	-20.50	1.0400	90.00	1	75.00	19.31	0.00	0.00	0.00	0.00	0.00	0.00	0	0	0	0	75.0000	0	0	0	0
111237	30.86	19.30	21.63	-10.78	1.0400	51.00	1	42.50	17.39	0.00	0.00	0.00	0.00	0.00	0.00	0	0	0	0	42.5000	0	0	0	0
111241	0.00	0.00	14.25	-8.08	1.0400	33.60	0	28.00	13.43	0.00	0.00	0.00	0.00	0.00	0.00	0	0	0	0	28.0000	0	0	0	0
111242	0.00	0.00	14.25	-9.25	1.0400	33.60	0	28.00	12.12	0.00	0.00	0.00	0.00	0.00	0.00	0	0	0	0	28.0000	0	0	0	0
111242	0.00	0.00	9.16	-5.82	1.0400	21.60	0	18.00	5.59	0.00	0.00	0.00	0.00	0.00	0.00	0	0	0	0	18.0000	0	0	0	0
111243	0.00	0.00	9.16	-5.59	1.0400	21.60	0	18.00	5.77	0.00	0.00	0.00	0.00	0.00	0.00	0	0	0	0	18.0000	0	0	0	0
111243	0.00	0.00	9.16	-6.07	1.0400	21.60	0	18.00	1.93	0.00	0.00	0.00	0.00	0.00	0.00	0	0	0	0	18.0000	0	0	0	0
111244	0.00	0.00	9.16	-6.13	1.0400	21.60	0	18.00	2.10	0.00	0.00	0.00	0.00	0.00	0.00	0	0	0	0	18.0000	0	0	0	0
111246	112.76	71.15	71.26	-39.11	1.0400	168.00	1	140.00	68.38	0.00	0.00	0.00	0.00	0.00	0.00	0	0	0	0	140.0000	0	0	0	0
111247	77.64	43.00	45.81	-22.96	1.0400	108.00	1	90.00	36.59	0.00	0.00	0.00	0.00	0.00	0.00	0	0	0	0	90.0000	0	0	0	0
111248	0.00	0.00	16.29	-9.57	1.0400	38.40	0	32.00	14.60	0.00	0.00	0.00	0.00	0.00	0.00	0	0	0	0	32.0000	0	0	0	0
111249	0.00	0.00	16.29	-10.33	1.0400	38.40	0	32.00	14.84	0.00	0.00	0.00	0.00	0.00	0.00	0	0	0	0	32.0000	0	0	0	0
111249	0.00	0.00	16.29	-9.32	1.0400	38.40	0	32.00	11.82	0.00	0.00	0.00	0.00	0.00	0.00	0	0	0	0	32.0000	0	0	0	0
111251	56.93	14.96	33.59	-22.39	1.0400	79.20	1	66.00	12.15	0.00	0.00	0.00	0.00	0.00	0.00	0	0	0	0	66.0000	0	0	0	0
111252	41.15	15.36	33.59	-20.06	1.0400	79.20	1	66.00	20.23	0.00	0.00	0.00	0.00	0.00	0.00	0	0	0	0	66.0000	0	0	0	0
111253	38.91	14.88	31.56	-19.86	1.0400	74.40	1	62.00	19.26	0.00	0.00	0.00	0.00	0.00	0.00	0	0	0	0	62.0000	0	0	0	0
111254	59.52	13.18	35.12	-18.26	1.0400	82.80	1	69.00	10.92	0.00	0.00	0.00	0.00	0.00	0.00	0	0	0	0	69.0000	0	0	0	0
111260	47.80	35.12	35.12	-22.98	1.0400	82.80	1	69.00	25.93	0.00	0.00	0.00	0.00	0.00	0.00	0	0	0	0	69.0000	0	0	0	0
111262	0.00	0.00	13.04	-12.05	1.0400	45.60	0	38.00	14.26	0.00	0.00	0.00	0.00	0.00	0.00	0	0	0	0	38.0000	0	0	0	0
111264	0.00	0.00	17.81	-9.49	1.0400	42.00	0	35.00	9.49	0.00	0.00	0.00	0.00	0.00	0.00	0	0	0	0	35.0000	0	0	0	0
111266	20.67	10.40	16.83	-15.71	1.0400	54.00	1	45.00	6.40	0.00	0.00	0.00	0.00	0.00	0.00	0	0	0	0	45.0000	0	0	0	0
111266	25.37	10.40	14.24	-13.58	1.0400	54.00	1	45.00	11.11	0.00	0.00	0.00	0.00	0.00	0.00	0	0	0	0	45.0000	0	0	0	0
111267	64.70	32.49	38.17	-20.63	1.0400	90.00	1	75.00	24.70	0.00	0.00	0.00	0.00	0.00	0.00	0	0	0	0	75.0000	0	0	0	0
111268	60.38	23.38	35.63	-18.38	1.0400	84.00	1	70.00	34.86	0.00	0.00	0.00	0.00	0.00	0.00	0	0	0	0	70.0000	0	0	0	0
111270	96.97	55.14	61.13	-37.48	1.0565	144.12	1	120.10	58.90	0.00	0.00	0.00	0.00	0.00	0.00	0	0	0	0	120.1000	0	0	0	0
111271	52.29	9.85	35.12	-17.45	1.0400	82.80	1	69.00	30.42	0.00	0.00	0.00	0.00	0.00	0.00	0	0	0	0	69.0000	0	0	0	0
111272	60.21	7.44	35.53	-23.45	1.0400	83.76	1	69.80	32.31	0.00	0.00	0.00	0.00	0.00	0.00	0	0	0	0	69.8000	0	0	0	0
111273	33.42	25.35	35.53	-24.08	1.0400	83.76	1	69.80	11.29	0.00	0.00	0.00	0.00	0.00	0.00	0	0	0	0	69.8000	0	0	0	0
111274	42.19	4.94	35.68	-18.43	1.0400	84.12	1	70.10	19.97	0.00	0.00	0.00	0.00	0.00	0.00	0	0	0	0	70.1000	0	0	0	0
111275	60.38	14.82	35.63	-20.08	1.0400	84.00	1	70.00	8.34	0.00	0.00	0.00	0.00	0.00	0.00	0	0	0	0	70.0000	0	0	0	0
111276	59.00	6.72	34.82	-17.90	1.0400	82.08	1	68.40	21.65	0.00	0.00	0.00	0.00	0.00	0.00	0	0	0	0	68.4000	0	0	0	0
111280	86.32	7.44	70.75	-35.41	1.0400	166.80	1	139.00	42.26	0.00	0.00	0.00	0.00	0.00	0.00	0	0	0	0	139.0000	0	0	0	0
111281	89.71	7.12	52.94	-26.52	1.0400	124.80	1	104.00	37.35	0.00	0.00	0.00	0.00	0.00	0.00	0	0	0	0	104.0000	0	0	0	0
111282	89.71	7.08	52.94	-29.59	1.0400	124.80	1	104.00	32.22	0.00	0.00	0.00	0.00	0.00	0.00	0	0	0	0	104.0000	0	0	0	0
111283	89.71	6.00	52.94	-28.22	1.0400	124.80	1	104.00	13.48	0.00	0.00	0.00	0.00	0.00	0.00	0	0	0	0	104.0000	0	0	0	0
111286	53.44	8.86	48.66	-32.33	1.0400	114.72	1	95.60	23.14	0.00	0.00	0.00	0.00	0.00	0.00	0	0	0	0	95.6000	0	0	0	0
111287	63.17	5.02	48.66	-24.43	1.0400	114.72	1	95.60	32.87	0.00	0.00	0.00	0.00	0.00	0.00	0	0	0	0	95.6000	0	0	0	0
111288	82.12	4.49	48.46	-26.93	1.0400	114.24	1	95.20	46.30	0.00	0.00	0.00	0.00	0.00	0.00	0	0	0	0	95.2000	0	0	0	0
111289	48.08	4.69	34.76	-19.32	1.0400	81.96	1	68.30	26.43	0.00	0.00	0.00	0.00	0.00	0.00	0	0	0	0	68.3000	0	0	0	0
111290	55.01	4.18	34.76	-18.60	1.0400	81.96	1	68.30	33.36	0.00	0.00	0.00	0.00	0.00	0.00	0	0	0	0	68.3000	0	0	0	0
111291	0.00	0.00	17.81	-10.98	1.0400	42.00	0	35.00	15.74	0.00	0.00	0.00	0.00	0.00	0.00	0	0	0	0	35.0000	0	0	0	0
111292	51.07	7.14	30.13	-19.35	1.0400	71.04	1	59.20	24.70	0.00	0.00	0.00	0.00	0.00	0.00	0	0	0	0	59.2000	0	0	0	0
111295	59.52	18.58	35.12	-18.16	1.0400	82.80	1	69.00	16.48	0.00	0.00	0.00	0.00	0.00	0.00	0	0	0	0	69.0000	0	0	0	0
111296	59.52	7.52	35.12	-21.25	1.0400	82.80	1	69.00	22.97	0.00	0.00	0.00	0.00	0.00	0.00	0	0	0	0	69.0000	0	0	0	0
111297	0.00	0.00	17.31	-9.12	1.0400	40.80	0	34.00	5.19	0.00	0.00	0.00	0.00	0.00	0.00	0	0	0	0	34.0000	0	0	0	0
111301	79.64	9.41	81.44	-54.23	1.0400	192.00	1	160.00	28.92	0.00	0.00	0.00	0.00	0.00	0.00	0	0	0	0	160.0000	0	0	0	0
111302	62.97	6.35	37.16	-21.88	1.0400	87.60	1	73.00	30.33	0.00	0.00	0.00	0.00	0.00	0.00	0	0	0	0	73.0000	0	0	0	0
111303	43.91	7.00	37.16	-24.81	1.0400	87.60	1	73.00	20.77	0.00	0.00	0.00	0.00	0.00	0.00	0	0	0	0	73.0000	0	0	0	0
111304	62.97	5.67	37.16	-21.09	1.0400	87.60	1	73.00	24.52	0.00	0.00	0.00	0.00	0.00	0.00	0	0	0	0	73.0000	0	0	0	0
111306	60.88	0.99	55.48	-36.09	1.0400	130.80	1	109.00	26.33	0.00	0.00	0.00	0.00	0.00	0.00	0	0	0	0	109.0000	0	0	0	0
111307	94.03	55.48	55.48	-30.52	1.0569	130.80	1	109.00	27.46	0.00	0.00	0.00	0.00	0.00	0.00	0	0	0	0	109.0000	0	0	0	0
111308	81.45	1.46	55.48	-34.66	1.0400	130.80	1	109.00	46.90	0.00	0.00	0.00	0.00	0.00	0.00	0	0	0	0	109.0000	0	0	0	0
111309	94.03	1.39	55.48	-37.92	1.0400	130.80	1	109.00	47.78	0.00	0.00	0.00	0.00	0.00	0.00	0	0	0	0	109.0000	0	0	0	0
111312	69.13	19.89	83.99	-47.10	1.0400	198.00	1	165.00	16.83	0.00	0.00	0.00	0.00	0.00	0.00	0	0	0	0	165.0000	0	0	0	0
111313	142.33	-6.92	83.99	-51.29	1.0352	198.00	1	165.00	49.54	0.00	0.00	0.00	0.00	0.00	0.00	0	0	0	0	165.0000	0	0	0	0
111314	142.33	-6.92	83.99	-53.86	1.0338	198.00	1	165.00	71.73	0.00	0.00	0.00	0.00	0.00	0.00	0	0	0	0	165.0000	0	0	0	0
111315	142.33	-6.92	83.99	-47.67	1.0360	198.00	1	165.00	58.52	0.00	0.00	0.00	0.00	0.00	0.00	0	0	0	0	165.0000	0	0	0	0
111316	51.76	7.14	30.54	-16.52	1.0400	72.00	1	60.00	8.55	0.00	0.00	0.00	0.00	0.00	0.00	0	0	0	0	60.0000	0	0	0	0
111318	89.29	9.48	82.46	-48.35	1.0400	194.40	1	162.00	37.94	0.00	0.00	0.00	0.00	0.00	0.00	0	0	0	0	162.0000	0	0	0	0
111319	139.75	-31.65	82.46	-46.29	1.0282	194.40	1	162.00	69.97	0.00	0.00	0.00	0.00	0.00	0.00	0	0	0	0	162.0000	0	0	0	0
111320	140.61	12.26	82.97	-54.72	1.0400	195.60	1	163.00	59.93	0.00	0.00	0.00	0.00	0.00	0.00	0	0	0	0	163.0000	0	0	0	0
111321	93.38	14.25	81.95	-42.94	1.0400	193.20	1	161.00	42.35	0.00	0.00	0.00	0.00	0.00	0.00	0	0	0	0	161.0000	0	0	0	0
111322	117.32	8.44	69.22	-34.05	1.0400	163.20	1	136.00	63.29	0.00	0.00	0.00	0.00	0.00	0.00	0	0	0	0	136.0000	0	0	0	0
111324	150.56	109.43	109.43	-65.43	1.0598	258.00	1	215.00	82.41	0.00	0.00	0.00	0.00	0.00	0.00	0	0	0	0	215.0000	0	0	0	0
111325	159.59	6.73	94.16	-54.86	1.0400	222.00	1	185.00	90.78	0.00	0.00	0.00	0.00	0.00	0.00	0	0	0	0	185.0000	0	0	0	0
111326	159.59	5.88	94.16	-53.28	1.0400	222.00	1	185.00	44.07	0.00	0.00	0.00	0.00	0.00	0.00	0	0	0	0	185.0000	0	0	0	0
111327	157.86	5.59	93.15	-46.34	1.0400	219.60	1	183.00	66.98	0.00	0.00	0.00	0.00	0.00	0.00	0	0	0	0	183.0000	0	0	0	0
111329	0.00	0.00	5.48	-4.02	1.0400	14.04	0	11.70	5.26	0.00	0.00	0.00	0.00	0.00	0.00	0	0	0	0	11.7000	0	0	0	0
111330	64.70	21.75	38.17	-21.38	1.0400	90.00	1	75.00	9.54	0.00	0.00	0.00	0.00	0.00	0.00	0	0	0	0	75.0000	0	0	0	0
111333	110.38	-0.43	139.97	-95.08	1.0400	330.00	1	275.00	110.38	0.00	0.00	0.00	0.00	0.00	0.00	0	0	0	0	275.0000	0	0	0	0
111334	150.96	0.26	89.07	-45.43	1.0400	210.00	1	175.00	74.33	0.00	0.00	0.00	0.00	0.00	0.00	0	0	0	0	175.0000	0	0	0	0
111335	0.00	0.00	89.07	-56.30	1.0400	210.00	0	175.00	77.27	0.00	0.00	0.00	0.00	0.00	0.00	0	0	0	0	175.0000	0	0	0	0
111336	121.52	0.46	89.07	-50.60	1.0400	210.00	1	175.00	38.81	0.00	0.00	0.00	0.00	0.00	0.00	0	0	0	0	175.0000	0	0	0	0
111339	166.49	57.01	98.24	-62.61	1.0521	231.60	1	193.00	95.32	0.00	0.00	0.00	0.00	0.00	0.00	0	0	0	0	193.0000	0	0	0	0
111340	123.45	3.44	84.49	-50.27	1.0400	199.20	1	166.00	37.65	0.00	0.00	0.00	0.00	0.00	0.00	0	0	0	0	166.0000	0	0	0	0
111341	143.20	57.01	84.49	-54.88	1.0530	199.20	1	166.00	44.21	0.00	0.00	0.00	0.00	0.00	0.00	0	0	0	0	166.0000	0	0	0	0
111343	32.78	9.43	19.34	-11.83	1.0400	45.60	1	38.00	10.31	0.00	0.00	0.00	0.00	0.00	0.00	0	0	0	0	38.0000	0	0	0	0
111344	32.78	6.17	19.34	-10.22	1.0400	45.60	1	38.00	18.13	0.00	0.00	0.00	0.00	0.00	0.00	0	0	0	0	38.0000	0	0	0	0
111344	17.12	6.17	19.34	-10.69	1.0400	45.60	1	38.00	5.07	0.00	0.00	0.00	0.00	0.00	0.00	0	0	0	0	38.0000	0	0	0	0
111345	32.78	19.34	19.34	-10.52	1.0400	45.60	1	38.00	6.14	0.00	0.00	0.00	0.00	0.00	0.00	0	0	0	0	38.0000	0	0	0	0
111347	126.90	48.64	143.54	-92.95	1.0522	338.40	1	282.00	37.51	0.00	0.00	0.00	0.00	0.00	0.00	0	0	0	0	282.0000	0	0	0	0
111348	77.92	7.12	86.43	-52.35	1.0400	203.76	1	169.80	24.10	0.00	0.00	0.00	0.00	0.00	0.00	0	0	0	0	169.8000	0	0	0	0
111349	74.45	10.24	86.43	-49.18	1.0400	203.76	1	169.80	20.63	0.00	0.00	0.00	0.00	0.00	0.00	0	0	0	0	169.8000	0	0	0	0
111350	89.28	8.69	86.43	-44.44	1.0400	203.76	1	169.80	35.46	0.00	0.00	0.00	0.00	0.00	0.00	0	0	0	0	169.8000	0	0	0	0
111351	146.47	12.87	86.43	-47.08	1.0400	203.76	1	169.80	32.88	0.00	0.00	0.00	0.00	0.00	0.00	0	0	0	0	169.8000	0	0	0	0
111352	115.44	48.64	78.79	-53.15	1.0573	185.76	1	154.80	66.37	0.00	0.00	0.00	0.00	0.00	0.00	0	0	0	0	154.8000	0	0	0	0
111354	64.70	11.00	38.17	-20.54	1.0400	90.00	1	75.00	9.55	0.00	0.00	0.00	0.00	0.00	0.00	0	0	0	0	75.0000	0	0	0	0
111355	89.14	7.81	80.42	-43.08	1.0400	189.60	1	158.00	39.06	0.00	0.00	0.00	0.00	0.00	0.00	0	0	0	0	158.0000	0	0	0	0
111356	94.31	80.42	80.42	-51.16	1.0595	189.60	1	158.00	44.23	0.00	0.00	0.00	0.00	0.00	0.00	0	0	0	0	158.0000	0	0	0	0
111357	71.40	13.06	80.42	-45.23	1.0400	189.60	1	158.00	21.32	0.00	0.00	0.00	0.00	0.00	0.00	0	0	0	0	158.0000	0	0	0	0
111358	56.63	8.17	38.17	-19.95	1.0400	90.00	1	75.00	32.86	0.00	0.00	0.00	0.00	0.00	0.00	0	0	0	0	75.0000	0	0	0	0
111360	90.05	61.08	86.22	-56.22	1.0629	203.28	1	169.40	36.35	0.00	0.00	0.00	0.00	0.00	0.00	0	0	0	0	169.4000	0	0	0	0
111361	43.13	9.96	25.45	-16.43	1.0400	60.00	1	50.00	22.87	0.00	0.00	0.00	0.00	0.00	0.00	0	0	0	0	50.0000	0	0	0	0
111364	84.54	-0.12	49.88	-32.77	1.0400	117.60	1	98.00	44.23	0.00	0.00	0.00	0.00	0.00	0.00	0	0	0	0	98.0000	0	0	0	0
111365	84.54	-0.05	49.88	-24.97	1.0400	117.60	1	98.00	33.19	0.00	0.00	0.00	0.00	0.00	0.00	0	0	0	0	98.0000	0	0	0	0
111366	62.11	-0.03	36.65	-24.55	1.0400	86.40	1	72.00	8.33	0.00	0.00	0.00	0.00	0.00	0.00	0	0	0	0	72.0000	0	0	0	0
111367	62.11	-0.07	36.65	-22.87	1.0400	86.40	1	72.00	25.74	0.00	0.00	0.00	0.00	0.00	0.00	0	0	0	0	72.0000	0	0	0	0
111368	62.11	-0.03	36.65	-18.19	1.0400	86.40	1	72.00	13.50	0.00	0.00	0.00	0.00	0.00	0.00	0	0	0	0	72.0000	0	0	0	0
111369	32.95	-0.09	36.65	-20.12	1.0400	86.40	1	72.00	10.13	0.00	0.00	0.00	0.00	0.00	0.00	0	0	0	0	72.0000	0	0	0	0
111372	148.37	85.65	87.55	-59.49	1.0577	206.40	1	172.00	74.41	0.00	0.00	0.00	0.00	0.00	0.00	0	0	0	0	172.0000	0	0	0	0
111373	142.33	-0.24	83.99	-46.18	1.0400	198.00	1	165.00	22.41	0.00	0.00	0.00	0.00	0.00	0.00	0	0	0	0	165.0000	0	0	0	0
111374	119.10	-0.89	83.99	-56.58	1.0400	198.00	1	165.00	66.80	0.00	0.00	0.00	0.00	0.00	0.00	0	0	0	0	165.0000	0	0	0	0
111376	0.00	0.00	6.26	-4.30	1.0400	14.76	0	12.30	2.28	0.00	0.00	0.00	0.00	0.00	0.00	0	0	0	0	12.3000	0	0	0	0
111378	41.41	24.43	24.43	-15.32	1.0400	57.60	1	48.00	6.91	0.00	0.00	0.00	0.00	0.00	0.00	0	0	0	0	48.0000	0	0	0	0
111382	63.83	37.67	37.67	-25.10	1.0400	88.80	1	74.00	12.81	0.00	0.00	0.00	0.00	0.00	0.00	0	0	0	0	74.0000	0	0	0	0
111384	0.00	0.00	6.81	-4.78	1.0400	16.80	0	14.00	4.91	0.00	0.00	0.00	0.00	0.00	0.00	0	0	0	0	14.0000	0	0	0	0
111386	54.82	35.63	35.63	-18.52	1.0400	84.00	1	70.00	32.63	0.00	0.00	0.00	0.00	0.00	0.00	0	0	0	0	70.0000	0	0	0	0
111390	407.59	14.18	240.50	-150.94	1.0408	567.00	1	472.50	220.95	0.00	0.00	0.00	0.00	0.00	0.00	0	0	0	0	472.5000	0	0	0	0
111391	156.62	14.18	168.94	-87.16	1.0440	398.28	1	331.90	51.41	0.00	0.00	0.00	0.00	0.00	0.00	0	0	0	0	331.9000	0	0	0	0
111392	289.24	14.18	170.67	-111.17	1.0421	402.36	1	335.30	156.21	0.00	0.00	0.00	0.00	0.00	0.00	0	0	0	0	335.3000	0	0	0	0
111395	24.40	4.25	27.49	-14.83	1.0400	64.80	1	54.00	7.28	0.00	0.00	0.00	0.00	0.00	0.00	0	0	0	0	54.0000	0	0	0	0
111396	46.58	6.88	27.49	-17.42	1.0400	64.80	1	54.00	10.18	0.00	0.00	0.00	0.00	0.00	0.00	0	0	0	0	54.0000	0	0	0	0
111397	46.58	6.60	27.49	-13.90	1.0400	64.80	1	54.00	19.57	0.00	0.00	0.00	0.00	0.00	0.00	0	0	0	0	54.0000	0	0	0	0
111398	46.58	3.90	27.49	-16.97	1.0400	64.80	1	54.00	24.34	0.00	0.00	0.00	0.00	0.00	0.00	0	0	0	0	54.0000	0	0	0	0
111399	32.11	8.86	27.49	-14.33	1.0400	64.80	1	54.00	14.99	0.00	0.00	0.00	0.00	0.00	0.00	0	0	0	0	54.0000	0	0	0	0
111400	46.58	8.37	27.49	-15.98	1.0400	64.80	1	54.00	18.36	0.00	0.00	0.00	0.00	0.00	0.00	0	0	0	0	54.0000	0	0	0	0
111402	38.82	22.90	22.90	-14.15	1.0400	54.00	1	45.00	13.77	0.00	0.00	0.00	0.00	0.00	0.00	0	0	0	0	45.0000	0	0	0	0
111402	38.82	22.90	22.90	-13.82	1.0400	54.00	1	45.00	10.04	0.00	0.00	0.00	0.00	0.00	0.00	0	0	0	0	45.0000	0	0	0	0
111404	100.93	49.09	59.55	-31.47	1.0395	140.40	1	117.00	41.90	0.00	0.00	0.00	0.00	0.00	0.00	0	0	0	0	117.0000	0	0	0	0
111408	0.00	0.00	3.25	-2.79	1.0400	12.00	0	10.00	0.00	0.00	0.00	0.00	0.00	0.00	0.00	0	0	0	0	10.0000	0	0	0	0
111410	0.00	0.00	4.49	-2.98	1.0400	12.00	0	10.00	0.00	0.00	0.00	0.00	0.00	0.00	0.00	0	0	0	0	10.0000	0	0	0	0
111412	0.00	0.00	3.76	-2.90	1.0400	12.00	0	10.00	0.00	0.00	0.00	0.00	0.00	0.00	0.00	0	0	0	0	10.0000	0	0	0	0
120434	19.18	9.19	23.41	-12.55	1.0400	55.20	1	46.00	4.60	0.00	0.00	0.00	0.00	0.00	0.00	0	0	0	0	46.0000	0	0	0	0
120434	21.92	9.19	23.41	-14.08	1.0400	55.20	1	46.00	7.34	0.00	0.00	0.00	0.00	0.00	0.00	0	0	0	0	46.0000	0	0	0	0
120435	0.00	0.00	23.41	-12.34	1.0400	55.20	0	46.00	9.75	0.00	0.00	0.00	0.00	0.00	0.00	0	0	0	0	46.0000	0	0	0	0
120436	39.68	21.69	23.41	-12.46	1.0400	55.20	1	46.00	7.55	0.00	0.00	0.00	0.00	0.00	0.00	0	0	0	0	46.0000	0	0	0	0
120438	317.64	22.21	213.78	-117.09	1.0439	504.00	1	420.00	184.51	0.00	0.00	0.00	0.00	0.00	0.00	0	0	0	0	420.0000	0	0	0	0
120439	353.68	22.21	208.69	-111.76	1.0431	492.00	1	410.00	112.96	0.00	0.00	0.00	0.00	0.00	0.00	0	0	0	0	410.0000	0	0	0	0
120442	27.36	-0.35	24.43	-12.72	1.0400	57.60	1	48.00	12.14	0.00	0.00	0.00	0.00	0.00	0.00	0	0	0	0	48.0000	0	0	0	0
120442	29.11	-0.35	24.43	-13.25	1.0400	57.60	1	48.00	13.89	0.00	0.00	0.00	0.00	0.00	0.00	0	0	0	0	48.0000	0	0	0	0
120443	41.41	-0.16	24.43	-13.12	1.0400	57.60	1	48.00	17.18	0.00	0.00	0.00	0.00	0.00	0.00	0	0	0	0	48.0000	0	0	0	0
120443	40.54	-0.16	23.92	-14.97	1.0400	56.40	1	47.00	17.96	0.00	0.00	0.00	0.00	0.00	0.00	0	0	0	0	47.0000	0	0	0	0
120444	258.86	-30.92	209.71	-105.73	1.0320	494.40	1	412.00	57.33	0.00	0.00	0.00	0.00	0.00	0.00	0	0	0	0	412.0000	0	0	0	0
120445	156.57	-0.28	117.07	-74.42	1.0400	276.00	1	230.00	83.66	0.00	0.00	0.00	0.00	0.00	0.00	0	0	0	0	230.0000	0	0	0	0
120446	117.60	-30.92	110.45	-55.78	1.0333	260.40	1	217.00	48.81	0.00	0.00	0.00	0.00	0.00	0.00	0	0	0	0	217.0000	0	0	0	0
120449	7.25	0.03	4.28	-2.89	1.0400	10.08	1	8.40	2.73	0.00	0.00	0.00	0.00	0.00	0.00	0	0	0	0	8.4000	0	0	0	0
120449	6.64	0.03	4.28	-2.86	1.0400	10.08	1	8.40	3.98	0.00	0.00	0.00	0.00	0.00	0.00	0	0	0	0	8.4000	0	0	0	0
120450	6.29	-2.26	4.28	-2.65	1.0400	10.08	1	8.40	3.63	0.00	0.00	0.00	0.00	0.00	0.00	0	0	0	0	8.4000	0	0	0	0
120450	7.25	-2.26	4.28	-2.58	1.0400	10.08	1	8.40	4.14	0.00	0.00	0.00	0.00	0.00	0.00	0	0	0	0	8.4000	0	0	0	0
120451	0.00	0.00	4.28	-2.18	1.0400	10.08	0	8.40	3.44	0.00	0.00	0.00	0.00	0.00	0.00	0	0	0	0	8.4000	0	0	0	0
120451	7.25	0.30	4.28	-2.88	1.0400	10.08	1	8.40	1.32	0.00	0.00	0.00	0.00	0.00	0.00	0	0	0	0	8.4000	0	0	0	0
120452	7.25	0.14	4.28	-2.72	1.0400	10.08	1	8.40	2.60	0.00	0.00	0.00	0.00	0.00	0.00	0	0	0	0	8.4000	0	0	0	0
120452	0.00	0.00	4.28	-2.86	1.0400	10.08	0	8.40	2.89	0.00	0.00	0.00	0.00	0.00	0.00	0	0	0	0	8.4000	0	0	0	0
120453	7.25	0.23	4.28	-2.31	1.0400	10.08	1	8.40	3.04	0.00	0.00	0.00	0.00	0.00	0.00	0	0	0	0	8.4000	0	0	0	0
120454	7.25	-2.26	4.28	-2.26	1.0400	10.08	1	8.40	2.48	0.00	0.00	0.00	0.00	0.00	0.00	0	0	0	0	8.4000	0	0	0	0
120454	7.25	-2.47	4.28	-2.47	1.0400	10.08	1	8.40	1.26	0.00	0.00	0.00	0.00	0.00	0.00	0	0	0	0	8.4000	0	0	0	0
120455	4.85	0.09	4.28	-2.57	1.0400	10.08	1	8.40	2.19	0.00	0.00	0.00	0.00	0.00	0.00	0	0	0	0	8.4000	0	0	0	0
120455	7.25	0.09	4.28	-2.70	1.0400	10.08	1	8.40	4.13	0.00	0.00	0.00	0.00	0.00	0.00	0	0	0	0	8.4000	0	0	0	0
120456	7.25	-2.88	4.28	-2.88	1.0400	10.08	1	8.40	1.47	0.00	0.00	0.00	0.00	0.00	0.00	0	0	0	0	8.4000	0	0	0	0
120456	6.02	-2.45	4.28	-2.45	1.0400	10.08	1	8.40	3.36	0.00	0.00	0.00	0.00	0.00	0.00	0	0	0	0	8.4000	0	0	0	0
120457	7.25	0.12	4.28	-2.10	1.0400	10.08	1	8.40	1.35	0.00	0.00	0.00	0.00	0.00	0.00	0	0	0	0	8.4000	0	0	0	0
120457	7.25	0.12	4.28	-2.31	1.0400	10.08	1	8.40	2.04	0.00	0.00	0.00	0.00	0.00	0.00	0	0	0	0	8.4000	0	0	0	0
120458	7.25	-1.86	4.28	-2.41	1.0400	10.08	1	8.40	3.46	0.00	0.00	0.00	0.00	0.00	0.00	0	0	0	0	8.4000	0	0	0	0
120458	4.00	-1.86	4.28	-2.84	1.0400	10.08	1	8.40	1.34	0.00	0.00	0.00	0.00	0.00	0.00	0	0	0	0	8.4000	0	0	0	0
120459	4.37	-2.32	4.28	-2.32	1.0400	10.08	1	8.40	1.71	0.00	0.00	0.00	0.00	0.00	0.00	0	0	0	0	8.4000	0	0	0	0
120459	5.94	-2.52	4.28	-2.52	1.0400	10.08	1	8.40	3.28	0.00	0.00	0.00	0.00	0.00	0.00	0	0	0	0	8.4000	0	0	0	0
120460	6.78	0.05	4.28	-2.85	1.0400	10.08	1	8.40	4.12	0.00	0.00	0.00	0.00	0.00	0.00	0	0	0	0	8.4000	0	0	0	0
120460	5.39	0.05	4.28	-2.13	1.0400	10.08	1	8.40	2.73	0.00	0.00	0.00	0.00	0.00	0.00	0	0	0	0	8.4000	0	0	0	0
...
];

%% generator cost data
mpc.gencost = [
1	0	0	6	87.52	6327.53	219.22	10042.05	350.91	14039.65	482.61	18320.32	614.30	22884.07	746.00	27730.88
1	0	0	6	303.73	14826.55	392.78	18042.25	481.84	21303.90	570.89	24611.51	659.95	27965.06	749.00	31364.57
1	0	0	6	15.73	2029.89	23.38	2686.25	31.04	3343.01	38.69	4000.17	46.35	4657.74	54.00	5315.71
1	0	0	6	6.30	1302.48	15.84	2243.59	25.38	3185.03	34.92	4126.80	44.46	5068.90	54.00	6011.33
1	0	0	6	23.18	2728.00	29.34	3272.34	35.51	3817.41	41.67	4363.22	47.84	4909.78	54.00	5457.07
1	0	0	6	23.19	2472.01	28.55	2887.51	33.91	3303.45	39.28	3719.83	44.64	4136.65	50.00	4553.91
1	0	0	6	21.89	2489.50	30.31	3179.54	38.73	3870.09	47.16	4561.14	55.58	5252.71	64.00	5944.79
1	0	0	6	26.28	3142.62	31.82	3661.92	37.37	4181.60	42.91	4701.66	48.46	5222.11	54.00	5742.93
1	0	0	6	27.60	1761.27	42.88	2317.81	58.16	2874.79	73.44	3432.22	88.72	3990.09	104.00	4548.41
1	0	0	6	48.44	2830.88	59.55	3306.86	70.66	3784.24	81.78	4263.03	92.89	4743.23	104.00	5224.84
1	0	0	6	20.52	1414.15	27.82	1673.23	35.11	1933.03	42.41	2193.55	49.70	2454.79	57.00	2716.76
1	0	0	6	14.65	1239.77	23.12	1560.23	31.59	1881.06	40.06	2202.28	48.53	2523.88	57.00	2845.85
1	0	0	6	28.41	1784.28	34.13	2005.42	39.85	2227.10	45.56	2449.31	51.28	2672.06	57.00	2895.33
1	0	0	6	24.09	1568.03	30.67	1809.16	37.25	2051.12	43.84	2293.91	50.42	2537.53	57.00	2781.98
1	0	0	6	14.15	1181.94	22.72	1482.62	31.29	1784.32	39.86	2087.06	48.43	2390.82	57.00	2695.62
1	0	0	6	13.05	1173.77	21.84	1502.65	30.63	1832.14	39.42	2162.24	48.21	2492.94	57.00	2824.25
1	0	0	6	13.03	1138.37	21.82	1444.02	30.62	1750.13	39.41	2056.70	48.21	2363.74	57.00	2671.25
1	0	0	6	25.07	1624.88	31.46	1864.16	37.84	2103.79	44.23	2343.77	50.61	2584.09	57.00	2824.77
1	0	0	6	25.87	3151.07	32.30	3763.14	38.72	4375.49	45.15	4988.12	51.57	5601.04	58.00	6214.24
1	0	0	6	25.90	2888.49	32.32	3434.19	38.74	3980.39	45.16	4527.09	51.58	5074.29	58.00	5622.00
1	0	0	6	10.82	1636.30	20.26	2464.17	29.69	3292.89	39.13	4122.44	48.56	4952.84	58.00	5784.08
1	0	0	6	8.97	1449.39	18.78	2282.82	28.58	3116.97	38.39	3951.81	48.19	4787.36	58.00	5623.62
1	0	0	6	17.69	2374.68	25.75	3143.82	33.81	3913.45	41.88	4683.57	49.94	5454.18	58.00	6225.29
1	0	0	6	26.75	3318.84	33.00	3933.75	39.25	4549.16	45.50	5165.08	51.75	5781.49	58.00	6398.40
1	0	0	6	3.03	0.00	5.02	0.00	7.02	0.00	9.01	0.00	11.01	0.00	13.00	0.00
1	0	0	6	149.20	4403.00	252.16	6495.72	355.12	8624.48	458.08	10789.28	561.04	12990.13	664.00	15227.02
1	0	0	6	76.51	3058.27	193.81	5646.66	311.11	8277.17	428.40	10949.77	545.70	13664.47	663.00	16421.28
1	0	0	6	224.35	0.00	301.48	0.00	378.61	0.00	455.74	0.00	532.87	0.00	610.00	0.00
1	0	0	6	183.07	0.00	261.86	0.00	340.64	0.00	419.43	0.00	498.21	0.00	577.00	0.00
1	0	0	6	1.49	0.00	3.79	0.00	6.09	0.00	8.40	0.00	10.70	0.00	13.00	0.00
1	0	0	6	165.98	9143.68	243.18	11965.61	320.39	14821.32	397.59	17710.79	474.80	20634.04	552.00	23591.06
1	0	0	6	34.50	2446.52	82.20	4433.35	129.90	6460.31	177.60	8527.38	225.30	10634.57	273.00	12781.87
1	0	0	6	44.20	2749.67	69.16	3820.45	94.12	4897.60	119.08	5981.12	144.04	7071.01	169.00	8167.27
1	0	0	6	29.81	2126.26	57.65	3314.83	85.49	4513.63	113.32	5722.66	141.16	6941.93	169.00	8171.43
1	0	0	6	201.18	3342.34	416.94	5747.24	632.71	8291.80	848.47	10976.02	1064.24	13799.90	1280.00	16763.45
1	0	0	6	178.29	2971.04	398.63	5283.39	618.97	7741.40	839.32	10345.05	1059.66	13094.36	1280.00	15989.32
1	0	0	6	34.89	2505.72	44.11	2977.32	53.33	3449.96	62.56	3923.63	71.78	4398.34	81.00	4874.09
1	0	0	6	13.80	1368.87	27.24	1999.36	40.68	2633.20	54.12	3270.42	67.56	3911.00	81.00	4554.94
1	0	0	6	3.97	0.00	9.18	0.00	14.38	0.00	19.59	0.00	24.79	0.00	30.00	0.00
1	0	0	6	20.03	1119.86	31.02	1343.44	42.02	1567.18	53.01	1791.05	64.01	2015.08	75.00	2239.25
1	0	0	6	7.50	873.00	21.00	1161.90	34.50	1454.04	48.00	1749.42	61.50	2048.04	75.00	2349.89
1	0	0	6	27.46	1250.20	36.97	1436.38	46.48	1622.71	55.98	1809.20	65.49	1995.84	75.00	2182.63
1	0	0	6	19.31	1293.82	30.45	1629.12	41.59	1966.48	52.72	2305.87	63.86	2647.32	75.00	2990.81
1	0	0	6	17.39	995.74	22.41	1091.61	27.43	1187.68	32.46	1283.95	37.48	1380.43	42.50	1477.10
1	0	0	6	13.43	0.00	16.34	0.00	19.26	0.00	22.17	0.00	25.09	0.00	28.00	0.00
1	0	0	6	12.12	0.00	15.30	0.00	18.47	0.00	21.65	0.00	24.82	0.00	28.00	0.00
1	0	0	6	5.59	0.00	8.07	0.00	10.55	0.00	13.04	0.00	15.52	0.00	18.00	0.00
1	0	0	6	5.77	0.00	8.22	0.00	10.66	0.00	13.11	0.00	15.55	0.00	18.00	0.00
1	0	0	6	1.93	0.00	5.14	0.00	8.36	0.00	11.57	0.00	14.79	0.00	18.00	0.00
1	0	0	6	2.10	0.00	5.28	0.00	8.46	0.00	11.64	0.00	14.82	0.00	18.00	0.00
1	0	0	6	68.38	2405.39	82.70	2739.58	97.03	3076.71	111.35	3416.77	125.68	3759.77	140.00	4105.69
1	0	0	6	36.59	1558.41	47.27	1798.80	57.95	2039.48	68.64	2280.47	79.32	2521.75	90.00	2763.32
1	0	0	6	14.60	0.00	18.08	0.00	21.56	0.00	25.04	0.00	28.52	0.00	32.00	0.00
1	0	0	6	14.84	0.00	18.27	0.00	21.70	0.00	25.14	0.00	28.57	0.00	32.00	0.00
1	0	0	6	11.82	0.00	15.86	0.00	19.89	0.00	23.93	0.00	27.96	0.00	32.00	0.00
1	0	0	6	12.15	974.61	22.92	1218.91	33.69	1464.73	44.46	1712.04	55.23	1960.87	66.00	2211.21
1	0	0	6	20.23	1189.40	29.38	1411.31	38.54	1634.27	47.69	1858.29	56.85	2083.37	66.00	2309.50
1	0	0	6	19.26	1181.01	27.81	1397.60	36.36	1615.54	44.90	1834.84	53.45	2055.50	62.00	2277.50
1	0	0	6	10.92	949.89	22.54	1211.99	34.15	1476.10	45.77	1742.21	57.38	2010.34	69.00	2280.48
1	0	0	6	25.93	2004.58	34.54	2436.80	43.16	2870.15	51.77	3304.62	60.39	3740.22	69.00	4176.94
1	0	0	6	14.26	0.00	19.01	0.00	23.76	0.00	28.50	0.00	33.25	0.00	38.00	0.00
1	0	0	6	9.49	0.00	14.59	0.00	19.69	0.00	24.80	0.00	29.90	0.00	35.00	0.00
1	0	0	6	6.40	2201.23	14.12	2443.97	21.84	2687.31	29.56	2931.24	37.28	3175.76	45.00	3420.89
1	0	0	6	11.11	2349.80	17.89	2563.21	24.67	2777.07	31.44	2991.40	38.22	3206.18	45.00	3421.43
1	0	0	6	24.70	1502.40	34.76	1824.11	44.82	2147.39	54.88	2472.23	64.94	2798.63	75.00	3126.59
1	0	0	6	34.86	1878.76	41.89	2115.40	48.92	2352.65	55.94	2590.52	62.97	2829.01	70.00	3068.12
1	0	0	6	58.90	2033.24	71.14	2293.64	83.38	2555.40	95.62	2818.52	107.86	3082.99	120.10	3348.82
1	0	0	6	30.42	1395.31	38.14	1570.79	45.85	1746.89	53.57	1923.62	61.28	2100.98	69.00	2278.96
1	0	0	6	32.31	1399.36	39.81	1560.57	47.31	1722.50	54.80	1885.15	62.30	2048.53	69.80	2212.63
1	0	0	6	11.29	974.43	22.99	1254.00	34.69	1534.44	46.40	1815.75	58.10	2097.92	69.80	2380.96
1	0	0	6	19.97	1154.88	30.00	1380.67	40.02	1608.31	50.05	1837.79	60.07	2069.13	70.10	2302.30
1	0	0	6	8.34	892.79	20.67	1170.47	33.00	1449.55	45.34	1730.03	57.67	2011.90	70.00	2295.17
1	0	0	6	21.65	1176.21	31.00	1380.75	40.35	1585.51	49.70	1790.49	59.05	1995.68	68.40	2201.10
1	0	0	6	42.26	1780.29	61.61	2225.20	80.96	2676.51	100.30	3134.21	119.65	3598.31	139.00	4068.81
1	0	0	6	37.35	1581.17	50.68	1875.67	64.01	2170.83	77.34	2466.64	90.67	2763.11	104.00	3060.24
1	0	0	6	32.22	1456.56	46.58	1768.70	60.93	2081.72	75.29	2395.61	89.64	2710.37	104.00	3026.00
1	0	0	6	13.48	1053.03	31.58	1451.95	49.69	1851.27	67.79	2250.99	85.90	2651.12	104.00	3051.65
1	0	0	6	23.14	1275.69	37.63	1609.05	52.12	1944.26	66.62	2281.34	81.11	2620.28	95.60	2961.08
1	0	0	6	32.87	1478.25	45.42	1758.74	57.96	2041.80	70.51	2327.46	83.05	2615.70	95.60	2906.53
1	0	0	6	46.30	1751.38	56.08	1964.43	65.86	2177.83	75.64	2391.60	85.42	2605.73	95.20	2820.22
1	0	0	6	26.43	1299.41	34.80	1488.55	43.18	1678.66	51.55	1869.75	59.93	2061.81	68.30	2254.85
1	0	0	6	33.36	1472.98	40.35	1634.39	47.34	1796.33	54.32	1958.79	61.31	2121.79	68.30	2285.31
1	0	0	6	15.74	0.00	19.59	0.00	23.44	0.00	27.30	0.00	31.15	0.00	35.00	0.00
1	0	0	6	24.70	1463.26	31.60	1679.61	38.50	1896.74	45.40	2114.65	52.30	2333.34	59.20	2552.82
1	0	0	6	16.48	1174.01	26.98	1473.90	37.49	1773.94	47.99	2074.13	58.50	2374.46	69.00	2674.94
1	0	0	6	22.97	1331.98	32.18	1583.87	41.38	1836.83	50.59	2090.87	59.79	2345.99	69.00	2602.19
1	0	0	6	5.19	0.00	10.95	0.00	16.71	0.00	22.48	0.00	28.24	0.00	34.00	0.00
1	0	0	6	28.92	1548.04	55.14	2189.88	81.35	2844.46	107.57	3511.78	133.78	4191.85	160.00	4884.65
1	0	0	6	30.33	1405.29	38.86	1601.07	47.40	1797.47	55.93	1994.50	64.47	2192.15	73.00	2390.42
1	0	0	6	20.77	1220.78	31.22	1477.92	41.66	1735.79	52.11	1994.39	62.55	2253.72	73.00	2513.79
1	0	0	6	24.52	1276.92	34.22	1501.30	43.91	1725.79	53.61	1950.40	63.30	2175.12	73.00	2399.97
1	0	0	6	26.33	1545.52	42.86	2036.60	59.40	2529.01	75.93	3022.75	92.47	3517.83	109.00	4014.25
1	0	0	6	27.46	1558.88	43.77	2031.24	60.08	2507.22	76.38	2986.83	92.69	3470.07	109.00	3956.93
1	0	0	6	46.90	2154.49	59.32	2522.85	71.74	2892.49	84.16	3263.42	96.58	3635.63	109.00	4009.13
1	0	0	6	47.78	2107.26	60.02	2451.62	72.27	2798.70	84.51	3148.51	96.76	3501.06	109.00	3856.34
1	0	0	6	16.83	1280.90	46.46	2044.02	76.10	2812.96	105.73	3587.71	135.37	4368.28	165.00	5154.66
1	0	0	6	49.54	1914.40	72.63	2411.72	95.72	2909.87	118.82	3408.86	141.91	3908.68	165.00	4409.35
1	0	0	6	71.73	2619.28	90.38	3080.05	109.04	3542.11	127.69	4005.46	146.35	4470.11	165.00	4936.05
1	0	0	6	58.52	2294.92	79.82	2821.65	101.11	3351.21	122.41	3883.59	143.70	4418.80	165.00	4956.84
1	0	0	6	8.55	887.23	18.84	1124.59	29.13	1362.56	39.42	1601.14	49.71	1840.32	60.00	2080.11
1	0	0	6	37.94	1798.90	62.75	2424.03	87.56	3057.69	112.38	3699.87	137.19	4350.58	162.00	5009.80
1	0	0	6	69.97	2433.82	88.38	2852.30	106.78	3271.20	125.19	3690.52	143.59	4110.28	162.00	4530.46
1	0	0	6	59.93	2241.99	80.54	2722.68	101.16	3205.30	121.77	3689.87	142.39	4176.37	163.00	4664.80
1	0	0	6	42.35	1820.02	66.08	2368.31	89.81	2926.99	113.54	3496.06	137.27	4075.50	161.00	4665.34
1	0	0	6	63.29	2176.61	77.83	2491.99	92.37	2810.62	106.92	3132.51	121.46	3457.65	136.00	3786.04
1	0	0	6	82.41	2624.02	108.93	3171.54	135.45	3728.55	161.96	4295.06	188.48	4871.05	215.00	5456.54
1	0	0	6	90.78	2579.91	109.62	2933.29	128.47	3290.84	147.31	3652.55	166.16	4018.42	185.00	4388.45
1	0	0	6	44.07	1722.28	72.26	2262.58	100.44	2814.43	128.63	3377.82	156.81	3952.77	185.00	4539.27
1	0	0	6	66.98	2010.32	90.18	2403.80	113.39	2800.81	136.59	3201.36	159.80	3605.43	183.00	4013.03
1	0	0	6	5.26	0.00	6.55	0.00	7.84	0.00	9.12	0.00	10.41	0.00	11.70	0.00
1	0	0	6	9.54	919.31	22.63	1203.11	35.72	1488.40	48.82	1775.17	61.91	2063.42	75.00	2353.15
1	0	0	6	110.38	3612.44	143.30	4387.94	176.23	5180.04	209.15	5988.72	242.08	6813.99	275.00	7655.84
1	0	0	6	74.33	2537.66	94.46	2991.42	114.60	3449.79	134.73	3912.79	154.87	4380.40	175.00	4852.63
1	0	0	6	77.27	0.00	96.82	0.00	116.36	0.00	135.91	0.00	155.45	0.00	175.00	0.00
1	0	0	6	38.81	1760.55	66.05	2390.84	93.29	3035.38	120.52	3694.18	147.76	4367.25	175.00	5054.58
1	0	0	6	95.32	3458.45	114.86	3984.96	134.39	4515.06	153.93	5048.76	173.46	5586.04	193.00	6126.92
1	0	0	6	37.65	1896.52	63.32	2610.73	88.99	3337.28	114.66	4076.18	140.33	4827.42	166.00	5591.00
1	0	0	6	44.21	2066.55	68.57	2737.38	92.93	3409.75	117.28	4083.67	141.64	4759.13	166.00	5436.14
1	0	0	6	10.31	1096.50	15.85	1332.57	21.39	1568.86	26.92	1805.35	32.46	2042.06	38.00	2278.98
1	0	0	6	18.13	1469.44	22.10	1647.52	26.08	1825.77	30.05	2004.20	34.03	2182.80	38.00	2361.57
1	0	0	6	5.07	898.23	11.66	1211.59	18.24	1525.63	24.83	1840.34	31.41	2155.73	38.00	2471.80
1	0	0	6	6.14	923.35	12.51	1199.77	18.88	1476.90	25.26	1754.75	31.63	2033.31	38.00	2312.58
1	0	0	6	37.51	2000.86	86.41	3275.59	135.31	4564.51	184.20	5867.60	233.10	7184.86	282.00	8516.31
1	0	0	6	24.10	1433.40	53.24	2133.12	82.38	2847.34	111.52	3576.05	140.66	4319.25	169.80	5076.95
1	0	0	6	20.63	1337.00	50.46	2034.47	80.30	2735.94	110.13	3441.42	139.97	4150.90	169.80	4864.38
1	0	0	6	35.46	1709.11	62.33	2356.50	89.20	3013.64	116.06	3680.53	142.93	4357.18	169.80	5043.57
1	0	0	6	32.88	1607.87	60.26	2235.15	87.65	2868.09	115.03	3506.69	142.42	4150.94	169.80	4800.85
1	0	0	6	66.37	2691.37	84.06	3186.79	101.74	3683.03	119.43	4180.09	137.11	4677.97	154.80	5176.66
1	0	0	6	9.55	913.07	22.64	1187.98	35.73	1464.28	48.82	1741.96	61.91	2021.02	75.00	2301.46
1	0	0	6	39.06	1670.57	62.85	2178.23	86.64	2689.47	110.42	3204.29	134.21	3722.70	158.00	4244.69
1	0	0	6	44.23	1873.03	66.98	2406.01	89.74	2944.16	112.49	3487.48	135.25	4035.97	158.00	4589.63
1	0	0	6	21.32	1314.51	48.66	1926.76	75.99	2539.51	103.33	3152.76	130.66	3766.51	158.00	4380.75
1	0	0	6	32.86	1430.12	41.29	1614.18	49.72	1798.60	58.14	1983.39	66.57	2168.55	75.00	2354.07
1	0	0	6	36.35	1537.37	62.96	2037.56	89.57	2549.40	116.18	3072.90	142.79	3608.04	169.40	4154.84
1	0	0	6	22.87	1095.99	28.30	1195.87	33.72	1296.04	39.15	1396.50	44.57	1497.25	50.00	1598.29
1	0	0	6	44.23	2132.51	54.98	2469.38	65.74	2806.91	76.49	3145.09	87.25	3483.94	98.00	3823.45
1	0	0	6	33.19	1706.97	46.15	2081.87	59.11	2458.14	72.08	2835.76	85.04	3214.75	98.00	3595.09
1	0	0	6	8.33	953.59	21.06	1329.02	33.80	1704.84	46.53	2081.04	59.27	2457.62	72.00	2834.58
1	0	0	6	25.74	1513.51	34.99	1803.04	44.24	2092.73	53.50	2382.59	62.75	2672.61	72.00	2962.79
1	0	0	6	13.50	1117.27	25.20	1471.97	36.90	1826.92	48.60	2182.12	60.30	2537.58	72.00	2893.28
1	0	0	6	10.13	1046.80	22.50	1460.64	34.88	1875.65	47.25	2291.81	59.63	2709.12	72.00	3127.59
1	0	0	6	74.41	2934.41	93.93	3479.07	113.45	4028.94	132.96	4584.05	152.48	5144.38	172.00	5709.93
1	0	0	6	22.41	1438.84	50.93	2191.36	79.45	2951.12	107.96	3718.12	136.48	4492.36	165.00	5273.83
1	0	0	6	66.80	2802.15	86.44	3376.84	106.08	3956.89	125.72	4542.29	145.36	5133.05	165.00	5729.17
1	0	0	6	2.28	0.00	4.28	0.00	6.29	0.00	8.29	0.00	10.30	0.00	12.30	0.00
1	0	0	6	6.91	835.10	15.13	1029.07	23.35	1223.36	31.56	1417.97	39.78	1612.91	48.00	1808.17
1	0	0	6	12.81	1536.35	25.05	2324.86	37.29	3115.70	49.52	3908.88	61.76	4704.40	74.00	5502.27
1	0	0	6	4.91	0.00	6.73	0.00	8.55	0.00	10.36	0.00	12.18	0.00	14.00	0.00
1	0	0	6	32.63	1638.93	40.10	1852.85	47.58	2066.99	55.05	2281.36	62.53	2495.94	70.00	2710.75
1	0	0	6	220.95	8553.75	271.26	10095.81	321.57	11647.39	371.88	13208.48	422.19	14779.10	472.50	16359.23
1	0	0	6	51.41	2775.71	107.51	4606.57	163.61	6457.94	219.70	8329.84	275.80	10222.25	331.90	12135.19
1	0	0	6	156.21	5751.96	192.03	6817.95	227.85	7892.50	263.66	8975.62	299.48	10067.29	335.30	11167.54
1	0	0	6	7.28	885.36	16.62	1147.67	25.97	1410.51	35.31	1673.89	44.66	1937.81	54.00	2202.28
1	0	0	6	10.18	919.80	18.94	1125.39	27.71	1331.41	36.47	1537.88	45.24	1744.79	54.00	1952.14
1	0	0	6	19.57	1178.18	26.46	1353.13	33.34	1528.57	40.23	1704.51	47.11	1880.95	54.00	2057.90
1	0	0	6	24.34	1318.90	30.27	1474.36	36.20	1630.31	42.14	1786.75	48.07	1943.67	54.00	2101.07
1	0	0	6	14.99	1123.86	22.79	1354.36	30.59	1586.12	38.40	1819.14	46.20	2053.41	54.00	2288.95
1	0	0	6	18.36	1157.23	25.49	1342.13	32.62	1527.33	39.74	1712.85	46.87	1898.69	54.00	2084.84
1	0	0	6	13.77	1112.38	20.02	1314.17	26.26	1516.04	32.51	1717.99	38.75	1920.01	45.00	2122.11
1	0	0	6	10.04	971.03	17.03	1182.41	24.02	1394.43	31.02	1607.10	38.01	1820.41	45.00	2034.36
1	0	0	6	41.90	1866.54	56.92	2257.65	71.94	2649.77	86.96	3042.91	101.98	3437.07	117.00	3832.25
1	0	0	6	1.83	0.00	3.46	0.00	5.10	0.00	6.73	0.00	8.37	0.00	10.00	0.00
1	0	0	6	3.80	0.00	5.04	0.00	6.28	0.00	7.52	0.00	8.76	0.00	10.00	0.00
1	0	0	6	2.08	0.00	3.66	0.00	5.25	0.00	6.83	0.00	8.42	0.00	10.00	0.00
1	0	0	6	4.60	882.36	12.88	1266.40	21.16	1651.53	29.44	2037.75	37.72	2425.05	46.00	2813.44
1	0	0	6	7.34	997.66	15.07	1343.87	22.80	1690.68	30.54	2038.08	38.27	2386.07	46.00	2734.65
1	0	0	6	9.75	0.00	17.00	0.00	24.25	0.00	31.50	0.00	38.75	0.00	46.00	0.00
1	0	0	6	7.55	967.23	15.24	1271.00	22.93	1575.48	30.62	1880.67	38.31	2186.57	46.00	2493.19
1	0	0	6	184.51	10319.40	231.61	12717.18	278.71	15157.86	325.80	17641.44	372.90	20167.91	420.00	22737.28
1	0	0	6	112.96	5492.28	172.37	7979.53	231.78	10499.31	291.18	13051.64	350.59	15636.50	410.00	18253.89
1	0	0	6	12.14	1211.62	19.31	1530.42	26.48	1849.50	33.66	2168.86	40.83	2488.50	48.00	2808.42
1	0	0	6	13.89	1268.52	20.71	1561.49	27.53	1854.96	34.36	2148.92	41.18	2443.36	48.00	2738.30
1	0	0	6	17.18	1330.60	23.34	1566.90	29.51	1803.68	35.67	2040.94	41.84	2278.69	48.00	2516.92
1	0	0	6	17.96	1431.61	23.77	1677.75	29.58	1924.21	35.38	2171.00	41.19	2418.11	47.00	2665.56
1	0	0	6	57.33	3163.58	128.26	6093.53	199.20	9112.33	270.13	12219.98	341.07	15416.48	412.00	18701.83
1	0	0	6	83.66	4573.84	112.93	5843.38	142.20	7125.97	171.46	8421.64	200.73	9730.37	230.00	11052.17
1	0	0	6	48.81	2941.86	82.45	4331.46	116.09	5726.06	149.72	7125.65	183.36	8530.24	217.00	9939.82
1	0	0	6	2.73	703.15	3.86	740.77	5.00	778.39	6.13	816.03	7.27	853.68	8.40	891.33
1	0	0	6	3.98	769.21	4.86	804.00	5.75	838.80	6.63	873.60	7.52	908.42	8.40	943.25
1	0	0	6	3.63	743.47	4.58	777.87	5.54	812.27	6.49	846.69	7.45	881.12	8.40	915.56
1	0	0	6	4.14	758.12	4.99	788.07	5.84	818.03	6.70	847.99	7.55	877.97	8.40	907.95
1	0	0	6	3.44	0.00	4.43	0.00	5.42	0.00	6.42	0.00	7.41	0.00	8.40	0.00
1	0	0	6	1.32	658.82	2.74	708.39	4.15	758.01	5.57	807.66	6.98	857.34	8.40	907.06
1	0	0	6	2.60	703.89	3.76	744.62	4.92	785.37	6.08	826.14	7.24	866.93	8.40	907.74
1	0	0	6	2.89	0.00	3.99	0.00	5.09	0.00	6.20	0.00	7.30	0.00	8.40	0.00
1	0	0	6	3.04	725.98	4.11	765.96	5.18	805.95	6.26	845.96	7.33	885.99	8.40	926.03
1	0	0	6	2.48	700.32	3.66	742.21	4.85	784.11	6.03	826.04	7.22	867.99	8.40	909.97
1	0	0	6	1.26	655.30	2.69	703.69	4.12	752.11	5.54	800.55	6.97	849.02	8.40	897.51
1	0	0	6	2.19	695.41	3.43	742.38	4.67	789.35	5.92	836.34	7.16	883.34	8.40	930.34
1	0	0	6	4.13	765.59	4.98	797.22	5.84	828.87	6.69	860.52	7.55	892.18	8.40	923.86
1	0	0	6	1.47	665.42	2.86	715.22	4.24	765.05	5.63	814.90	7.01	864.77	8.40	914.67
1	0	0	6	3.36	737.00	4.37	774.32	5.38	811.66	6.38	849.00	7.39	886.36	8.40	923.74
1	0	0	6	1.35	656.18	2.76	701.70	4.17	747.24	5.58	792.80	6.99	838.39	8.40	884.00
1	0	0	6	2.04	686.17	3.31	732.04	4.58	777.93	5.86	823.85	7.13	869.78	8.40	915.74
1	0	0	6	3.46	731.12	4.45	764.96	5.44	798.81	6.42	832.68	7.41	866.55	8.40	900.44
1	0	0	6	1.34	660.95	2.75	711.90	4.16	762.88	5.58	813.88	6.99	864.90	8.40	915.95
1	0	0	6	1.71	677.26	3.05	727.85	4.39	778.46	5.72	829.10	7.06	879.75	8.40	930.43
1	0	0	6	3.28	733.17	4.30	770.81	5.33	808.46	6.35	846.13	7.38	883.81	8.40	921.51
1	0	0	6	4.12	769.86	4.98	802.53	5.83	835.21	6.69	867.90	7.54	900.61	8.40	933.32
1	0	0	6	2.73	719.16	3.86	763.42	5.00	807.70	6.13	852.00	7.27	896.31	8.40	940.65
...
];

%% branch data
mpc.branch = [
110001	110004	0.001440	0.047750	0.00000	245.70	245.70	245.70	1.00000	0.000	1	0.00	0.00	0.00	0.00	0.00	0.00	0	0	0	0
110001	110041	0.016080	0.088100	0.05448	227.90	227.90	227.90	0.00000	0.000	1	0.00	0.00	35.37	-1.24	-35.18	-3.56	0	0	0	0
110001	110113	0.001480	0.008960	0.01119	307.20	307.20	307.20	0.00000	0.000	1	0.00	0.00	-110.27	28.52	110.45	-28.64	0	0	0	0
110001	230292	0.010940	0.051090	0.07783	257.20	257.20	257.20	0.00000	0.000	1	0.00	0.00	32.22	-16.15	-32.10	8.32	0	0	0	0
110001	270046	0.006160	0.041050	0.01329	271.40	271.40	271.40	0.00000	0.000	1	0.00	0.00	42.46	-11.21	-42.35	10.51	0	0	0	0
110002	110004	0.000000	0.010000	0.00000	10.40	10.40	10.40	1.00000	0.000	1	0.00	0.00	0.00	0.00	0.00	0.00	0	0	0	0
110003	110004	0.000000	0.010000	0.00000	10.00	10.00	10.00	1.00000	0.000	1	0.00	0.00	0.00	0.00	0.00	0.00	0	0	0	0
110005	110008	0.001170	0.036910	0.00000	243.90	243.90	243.90	1.00000	0.000	1	0.00	0.00	0.00	0.00	0.00	0.00	0	0	0	0
110005	110065	0.002450	0.013000	0.01183	307.40	307.40	307.40	0.00000	0.000	1	0.00	0.00	96.51	-27.87	-96.27	27.89	0	0	0	0
110005	111259	0.002590	0.018470	0.02085	300.80	300.80	300.80	0.00000	0.000	1	0.00	0.00	104.86	-18.87	-104.58	18.70	0	0	0	0
110005	111363	0.002790	0.019210	0.00978	302.20	302.20	302.20	0.00000	0.000	1	0.00	0.00	-164.51	-17.59	165.24	21.60	0	0	0	0
...